DMS_1_A_402
  -ISIS-            3D

 10  9  0  0  0  0  0  0  0  0  1 V2000
    6.1590   -0.9710   -6.2410 S   0  0  0  0  0
    7.1730   -0.7080   -7.2920 O   0  0  0  0  0
    7.0110   -0.9210   -4.6690 C   0  0  0  0  0
    5.8010   -2.6960   -6.2420 C   0  0  0  0  0
    6.3196   -1.2239   -3.8564 H   0  0  0  0  0
    7.3595    0.1140   -4.4757 H   0  0  0  0  0
    7.8877   -1.6008   -4.6837 H   0  0  0  0  0
    5.1412   -2.9461   -5.3861 H   0  0  0  0  0
    6.7374   -3.2868   -6.1719 H   0  0  0  0  0
    5.2787   -2.9616   -7.1838 H   0  0  0  0  0
  1  2  2  0  0  0
  1  3  1  0  0  0
  1  4  1  0  0  0
  3  5  1  0  0  0
  3  6  1  0  0  0
  3  7  1  0  0  0
  4  8  1  0  0  0
  4  9  1  0  0  0
  4 10  1  0  0  0
M  END
$$$$
