DMS_1_A_403
  -ISIS-            3D

 10  9  0  0  0  0  0  0  0  0  1 V2000
    2.4770  -18.8290    8.1210 S   0  0  0  0  0
    3.7560  -18.7870    8.9700 O   0  0  0  0  0
    1.1850  -18.1760    9.1620 C   0  0  0  0  0
    1.9440  -20.5100    8.1810 C   0  0  0  0  0
    0.1982  -18.3285    8.6790 H   0  0  0  0  0
    1.3479  -17.0884    9.3057 H   0  0  0  0  0
    1.1947  -18.6752   10.1527 H   0  0  0  0  0
    0.9361  -20.6040    7.7274 H   0  0  0  0  0
    1.9130  -20.8729    9.2292 H   0  0  0  0  0
    2.6527  -21.1394    7.6049 H   0  0  0  0  0
  1  2  2  0  0  0
  1  3  1  0  0  0
  1  4  1  0  0  0
  3  5  1  0  0  0
  3  6  1  0  0  0
  3  7  1  0  0  0
  4  8  1  0  0  0
  4  9  1  0  0  0
  4 10  1  0  0  0
M  END
$$$$
