DMS_1_A_401
  -ISIS-            3D

 10  9  0  0  0  0  0  0  0  0  1 V2000
    7.0000  -28.0350   21.6070 S   0  0  0  0  0
    7.7700  -27.0360   22.4040 O   0  0  0  0  0
    5.7520  -28.6740   22.6910 C   0  0  0  0  0
    5.9540  -27.1020   20.5400 C   0  0  0  0  0
    5.0520  -29.3184   22.1209 H   0  0  0  0  0
    5.1878  -27.8441   23.1638 H   0  0  0  0  0
    6.2320  -29.2822   23.4847 H   0  0  0  0  0
    5.2487  -27.7792   20.0163 H   0  0  0  0  0
    6.5735  -26.5784   19.7835 H   0  0  0  0  0
    5.3804  -26.3495   21.1191 H   0  0  0  0  0
  1  2  2  0  0  0
  1  3  1  0  0  0
  1  4  1  0  0  0
  3  5  1  0  0  0
  3  6  1  0  0  0
  3  7  1  0  0  0
  4  8  1  0  0  0
  4  9  1  0  0  0
  4 10  1  0  0  0
M  END
$$$$
