DMS_1_A_402
  -ISIS-            3D

 10  9  0  0  0  0  0  0  0  0  1 V2000
    6.1540   -0.9550   -6.2440 S   0  0  0  0  0
    7.1080   -0.7070   -7.3520 O   0  0  0  0  0
    7.1220   -0.9890   -4.7250 C   0  0  0  0  0
    5.7620   -2.6780   -6.2880 C   0  0  0  0  0
    6.4801   -1.3083   -3.8784 H   0  0  0  0  0
    7.5109    0.0288   -4.5179 H   0  0  0  0  0
    7.9762   -1.6893   -4.8293 H   0  0  0  0  0
    5.1600   -2.9511   -5.3972 H   0  0  0  0  0
    6.6895   -3.2862   -6.3075 H   0  0  0  0  0
    5.1692   -2.8966   -7.1998 H   0  0  0  0  0
  1  2  2  0  0  0
  1  3  1  0  0  0
  1  4  1  0  0  0
  3  5  1  0  0  0
  3  6  1  0  0  0
  3  7  1  0  0  0
  4  8  1  0  0  0
  4  9  1  0  0  0
  4 10  1  0  0  0
M  END
$$$$
