WR1_1_A_601
  -ISIS-            3D

 55 56  0  0  0  0  0  0  0  0  1 V2000
   -6.5520   28.5150   71.1060 O   0  0  0  0  0
   -6.5250   27.8900   72.1570 C   0  0  0  0  0
   -6.2310   26.4680   72.1340 O   0  0  0  0  0
   -5.5160   25.8180   71.0780 C   0  0  0  0  0
   -4.1610   26.4210   70.7410 C   0  0  0  0  0
   -3.4620   25.9000   69.6440 C   0  0  0  0  0
   -2.2190   26.4200   69.2890 C   0  0  0  0  0
   -1.6640   27.4620   70.0320 C   0  0  0  0  0
   -2.3460   27.9720   71.1330 C   0  0  0  0  0
   -3.5920   27.4590   71.4880 C   0  0  0  0  0
   -6.6950   28.3820   73.3840 N   0  0  0  0  0
   -6.9660   29.7610   73.7370 C   0  0  0  0  0
   -8.1050   29.7830   74.7610 C   0  0  0  0  0
   -9.3070   29.0590   74.1810 C   0  0  0  0  0
   -9.4620   27.6780   74.3360 C   0  0  0  0  0
  -10.5700   27.0350   73.7840 C   0  0  0  0  0
  -11.5180   27.7770   73.0800 C   0  0  0  0  0
  -11.3540   29.1540   72.9310 C   0  0  0  0  0
  -10.2570   29.7940   73.4820 C   0  0  0  0  0
   -5.7340   30.4410   74.3020 C   0  0  0  0  0
   -4.6870   29.8150   74.4860 O   0  0  0  0  0
   -5.8250   31.7550   74.5470 N   0  0  0  0  0
   -4.6800   32.5560   74.9540 C   0  0  0  0  0
   -5.1140   33.7280   75.8440 C   0  0  0  0  0
   -3.8920   33.0250   73.7460 C   0  0  0  0  0
   -3.2570   34.0880   73.8110 O   0  0  0  0  0
   -3.8880   32.1160   72.5040 C   0  0  0  0  0
   -3.0880   32.6100   71.2980 C   0  0  0  0  0
   -2.5760   31.4720   70.6260 O   0  0  0  0  0
   -6.1444   25.8125   70.1625 H   0  0  0  0  0
   -5.3632   24.7541   71.3560 H   0  0  0  0  0
   -3.8928   25.0756   69.0500 H   0  0  0  0  0
   -1.6748   26.0101   68.4210 H   0  0  0  0  0
   -0.6821   27.8796   69.7509 H   0  0  0  0  0
   -1.9025   28.7903   71.7257 H   0  0  0  0  0
   -4.1002   27.8839   72.3662 H   0  0  0  0  0
   -6.5882   27.7112   74.1564 H   0  0  0  0  0
   -7.2875   30.3330   72.8337 H   0  0  0  0  0
   -8.3840   30.8269   75.0274 H   0  0  0  0  0
   -7.7856   29.2918   75.7083 H   0  0  0  0  0
   -8.7198   27.0845   74.8955 H   0  0  0  0  0
  -10.6960   25.9454   73.9033 H   0  0  0  0  0
  -12.3962   27.2745   72.6400 H   0  0  0  0  0
  -12.1058   29.7360   72.3706 H   0  0  0  0  0
  -10.1452   30.8844   73.3553 H   0  0  0  0  0
   -6.7245   32.2344   74.4089 H   0  0  0  0  0
   -3.9819   31.9331   75.5648 H   0  0  0  0  0
   -4.2424   34.3005   76.2332 H   0  0  0  0  0
   -5.6873   33.3714   76.7293 H   0  0  0  0  0
   -5.7661   34.4434   75.2943 H   0  0  0  0  0
   -4.9311   31.9189   72.1712 H   0  0  0  0  0
   -3.4580   31.1389   72.8185 H   0  0  0  0  0
   -2.2371   33.2467   71.6212 H   0  0  0  0  0
   -3.7264   33.2129   70.6172 H   0  0  0  0  0
   -2.1442   31.7575   69.8320 H   0  0  0  0  0
  1  2  2  0  0  0
  2  3  1  0  0  0
  2 11  1  0  0  0
  3  4  1  0  0  0
  4  5  1  0  0  0
  4 30  1  0  0  0
  4 31  1  0  0  0
  5  6  2  0  0  0
  5 10  1  0  0  0
  6  7  1  0  0  0
  6 32  1  0  0  0
  7  8  2  0  0  0
  7 33  1  0  0  0
  8  9  1  0  0  0
  8 34  1  0  0  0
  9 10  2  0  0  0
  9 35  1  0  0  0
 10 36  1  0  0  0
 11 12  1  0  0  0
 11 37  1  0  0  0
 12 13  1  0  0  0
 12 20  1  0  0  0
 12 38  1  0  0  0
 13 14  1  0  0  0
 13 39  1  0  0  0
 13 40  1  0  0  0
 14 15  2  0  0  0
 14 19  1  0  0  0
 15 16  1  0  0  0
 15 41  1  0  0  0
 16 17  2  0  0  0
 16 42  1  0  0  0
 17 18  1  0  0  0
 17 43  1  0  0  0
 18 19  2  0  0  0
 18 44  1  0  0  0
 19 45  1  0  0  0
 20 21  2  0  0  0
 20 22  1  0  0  0
 22 23  1  0  0  0
 22 46  1  0  0  0
 23 24  1  0  0  0
 23 25  1  0  0  0
 23 47  1  0  0  0
 24 48  1  0  0  0
 24 49  1  0  0  0
 24 50  1  0  0  0
 25 26  2  0  0  0
 25 27  1  0  0  0
 27 28  1  0  0  0
 27 51  1  0  0  0
 27 52  1  0  0  0
 28 29  1  0  0  0
 28 53  1  0  0  0
 28 54  1  0  0  0
 29 55  1  0  0  0
M  END
$$$$
