DMS_1_A_404
  -ISIS-            3D

 10  9  0  0  0  0  0  0  0  0  1 V2000
    6.7230  -28.5870   -6.5830 S   0  0  0  0  0
    5.8580  -27.6450   -7.3920 O   0  0  0  0  0
    5.6270  -29.6280   -5.6620 C   0  0  0  0  0
    7.3810  -27.6120   -5.2750 C   0  0  0  0  0
    6.2079  -30.2454   -4.9465 H   0  0  0  0  0
    5.0861  -30.3002   -6.3592 H   0  0  0  0  0
    4.8895  -29.0144   -5.1056 H   0  0  0  0  0
    7.9292  -28.2606   -4.5612 H   0  0  0  0  0
    6.5667  -27.0826   -4.7396 H   0  0  0  0  0
    8.0857  -26.8635   -5.6914 H   0  0  0  0  0
  1  2  2  0  0  0
  1  3  1  0  0  0
  1  4  1  0  0  0
  3  5  1  0  0  0
  3  6  1  0  0  0
  3  7  1  0  0  0
  4  8  1  0  0  0
  4  9  1  0  0  0
  4 10  1  0  0  0
M  END
$$$$
