DMS_2_A_403
  -ISIS-            3D

 10  9  0  0  0  0  0  0  0  0  1 V2000
   -7.8740  -48.7780  -29.6970 S   0  0  0  0  0
   -7.4550  -47.5440  -28.9830 O   0  0  0  0  0
   -7.2500  -50.0950  -28.7090 C   0  0  0  0  0
   -6.7300  -48.9750  -31.0400 C   0  0  0  0  0
   -7.3732  -51.0597  -29.2423 H   0  0  0  0  0
   -7.8181  -50.1413  -27.7574 H   0  0  0  0  0
   -6.1768  -49.9366  -28.4777 H   0  0  0  0  0
   -6.8738  -49.9664  -31.5163 H   0  0  0  0  0
   -5.6852  -48.8864  -30.6782 H   0  0  0  0  0
   -6.9157  -48.1859  -31.7972 H   0  0  0  0  0
  1  2  2  0  0  0
  1  3  1  0  0  0
  1  4  1  0  0  0
  3  5  1  0  0  0
  3  6  1  0  0  0
  3  7  1  0  0  0
  4  8  1  0  0  0
  4  9  1  0  0  0
  4 10  1  0  0  0
M  END
$$$$
