EDO_1_B_1003
  -ISIS-            3D

 10  9  0  0  0  0  0  0  0  0  1 V2000
    7.7650    3.8920  -12.3180 C   0  0  0  0  0
    7.8230    2.9750  -11.2190 O   0  0  0  0  0
    6.5090    4.7250  -12.1450 C   0  0  0  0  0
    5.5890    3.9410  -11.3690 O   0  0  0  0  0
    7.7202    3.3204  -13.2693 H   0  0  0  0  0
    8.6735    4.5287  -12.3429 H   0  0  0  0  0
    8.5507    2.3852  -11.3641 H   0  0  0  0  0
    6.0533    4.9897  -13.1205 H   0  0  0  0  0
    6.7284    5.6697  -11.6046 H   0  0  0  0  0
    6.0363    3.6493  -10.5846 H   0  0  0  0  0
  1  2  1  0  0  0
  1  3  1  0  0  0
  1  5  1  0  0  0
  1  6  1  0  0  0
  2  7  1  0  0  0
  3  4  1  0  0  0
  3  8  1  0  0  0
  3  9  1  0  0  0
  4 10  1  0  0  0
M  END
$$$$
