Q3C_1_A_201
  -ISIS-            3D

 19 20  0  0  0  0  0  0  0  0  1 V2000
  -46.4610  -29.2820    1.9930 O   0  0  0  0  0
  -46.5300  -29.2580    3.2370 C   0  0  0  0  0
  -45.4580  -29.4490    3.8830 O   0  0  0  0  0
  -47.8890  -29.2320    3.9480 C   0  0  0  0  0
  -47.9100  -29.1270    5.3120 C   0  0  0  0  0
  -49.1170  -29.3980    3.2690 C   0  0  0  0  0
  -50.2740  -29.4730    3.9220 N   0  0  0  0  0
  -50.3150  -29.3590    5.2620 C   0  0  0  0  0
  -51.5430  -29.4480    5.9260 C   0  0  0  0  0
  -51.5900  -29.3600    7.3090 C   0  0  0  0  0
  -50.4280  -29.1560    8.0300 C   0  0  0  0  0
  -49.2010  -29.0940    7.3960 C   0  0  0  0  0
  -49.1520  -29.1780    5.9730 C   0  0  0  0  0
  -46.9790  -29.0114    5.8905 H   0  0  0  0  0
  -49.1379  -29.4969    2.1713 H   0  0  0  0  0
  -52.4704  -29.5958    5.3481 H   0  0  0  0  0
  -52.5578  -29.4393    7.8326 H   0  0  0  0  0
  -50.4785  -29.0628    9.1284 H   0  0  0  0  0
  -48.2783  -28.9685    7.9869 H   0  0  0  0  0
  1  2  2  0  0  0
  2  3  2  0  0  0
  2  4  1  0  0  0
  4  5  2  0  0  0
  4  6  1  0  0  0
  5 13  1  0  0  0
  5 14  1  0  0  0
  6  7  2  0  0  0
  6 15  1  0  0  0
  7  8  1  0  0  0
  8  9  2  0  0  0
  8 13  1  0  0  0
  9 10  1  0  0  0
  9 16  1  0  0  0
 10 11  2  0  0  0
 10 17  1  0  0  0
 11 12  1  0  0  0
 11 18  1  0  0  0
 12 13  2  0  0  0
 12 19  1  0  0  0
M  END
$$$$
