DMS_2_A_404
  -ISIS-            3D

 10  9  0  0  0  0  0  0  0  0  1 V2000
   -5.9370    0.4200  -18.2590 S   0  0  0  0  0
   -7.0950    0.9960  -17.5200 O   0  0  0  0  0
   -4.9960    1.7410  -19.0780 C   0  0  0  0  0
   -6.5400   -0.4510  -19.7330 C   0  0  0  0  0
   -4.1809    1.2957  -19.6843 H   0  0  0  0  0
   -4.5559    2.4067  -18.3076 H   0  0  0  0  0
   -5.6683    2.3322  -19.7329 H   0  0  0  0  0
   -5.6781   -0.8264  -20.3216 H   0  0  0  0  0
   -7.1460    0.2378  -20.3566 H   0  0  0  0  0
   -7.1681   -1.3094  -19.4184 H   0  0  0  0  0
  1  2  2  0  0  0
  1  3  1  0  0  0
  1  4  1  0  0  0
  3  5  1  0  0  0
  3  6  1  0  0  0
  3  7  1  0  0  0
  4  8  1  0  0  0
  4  9  1  0  0  0
  4 10  1  0  0  0
M  END
$$$$
