DMS_2_A_1002
  -ISIS-            3D

 10  9  0  0  0  0  0  0  0  0  1 V2000
   -7.4900  -28.1880  -21.3470 S   0  0  0  0  0
   -8.0470  -27.1820  -22.3180 O   0  0  0  0  0
   -6.2530  -29.1060  -22.2330 C   0  0  0  0  0
   -6.3990  -27.2970  -20.2620 C   0  0  0  0  0
   -5.7075  -29.7735  -21.5348 H   0  0  0  0  0
   -5.5354  -28.4157  -22.7214 H   0  0  0  0  0
   -6.7440  -29.7260  -23.0107 H   0  0  0  0  0
   -5.8510  -28.0091  -19.6114 H   0  0  0  0  0
   -6.9956  -26.6143  -19.6228 H   0  0  0  0  0
   -5.6732  -26.6990  -20.8499 H   0  0  0  0  0
  1  2  2  0  0  0
  1  3  1  0  0  0
  1  4  1  0  0  0
  3  5  1  0  0  0
  3  6  1  0  0  0
  3  7  1  0  0  0
  4  8  1  0  0  0
  4  9  1  0  0  0
  4 10  1  0  0  0
M  END
$$$$
