DMS_1_A_1004
  -ISIS-            3D

 10  9  0  0  0  0  0  0  0  0  1 V2000
    2.4460  -18.9170    8.2920 S   0  0  0  0  0
    3.7390  -18.9320    9.0580 O   0  0  0  0  0
    1.2960  -18.0030    9.2880 C   0  0  0  0  0
    1.7270  -20.5250    8.5060 C   0  0  0  0  0
    0.2793  -18.0740    8.8502 H   0  0  0  0  0
    1.6005  -16.9366    9.3141 H   0  0  0  0  0
    1.2807  -18.3995   10.3240 H   0  0  0  0  0
    0.7004  -20.5374    8.0860 H   0  0  0  0  0
    1.6892  -20.7920    9.5821 H   0  0  0  0  0
    2.3422  -21.2759    7.9692 H   0  0  0  0  0
  1  2  2  0  0  0
  1  3  1  0  0  0
  1  4  1  0  0  0
  3  5  1  0  0  0
  3  6  1  0  0  0
  3  7  1  0  0  0
  4  8  1  0  0  0
  4  9  1  0  0  0
  4 10  1  0  0  0
M  END
$$$$
