PEE_1_B_301
  -ISIS-            3D

 50 49  0  0  0  0  0  0  0  0  1 V2000
  118.9420  117.5140  111.1550 C   0  0  0  0  0
  117.7870  116.5230  111.2770 C   0  0  0  0  0
  113.4640  112.6220  112.2390 N   0  3  0  0  0
  120.2900  116.8000  111.3450 C   0  0  0  0  0
  114.8140  114.4480  111.3090 C   0  0  0  0  0
  114.2670  113.0430  111.0290 C   0  0  0  0  0
  118.9450  119.5130  109.9160 C   0  0  0  0  0
  119.5280  120.2070  108.7250 C   0  0  0  0  0
  119.6870  121.6910  109.0550 C   0  0  0  0  0
  120.5850  122.3740  108.0400 C   0  0  0  0  0
  122.3780  117.4760  110.5010 C   0  0  0  0  0
  122.7470  118.8320  109.9490 C   0  0  0  0  0
  124.0870  118.7270  109.2340 C   0  0  0  0  0
  124.2890  119.8790  108.2680 C   0  0  0  0  0
  118.5010  120.1000  110.8790 O   0  0  0  0  0
  123.1290  116.7800  111.1670 O   0  0  0  0  0
  118.9350  118.1580  109.8920 O   0  0  0  0  0
  121.1240  117.0470  110.2190 O   0  0  0  0  0
  115.8040  114.9070  113.7050 O   0  0  0  0  0
  117.9440  113.4900  112.9780 O   0  0  0  0  0
  117.7740  116.0160  112.5650 O   0  0  0  0  0
  116.1770  114.3630  111.3030 O   0  0  0  0  0
  116.9750  114.6070  112.8630 P   0  0  0  0  0
  118.8362  118.2462  111.9820 H   0  0  0  0  0
  117.9265  115.7249  110.5186 H   0  0  0  0  0
  116.8239  117.0333  111.0656 H   0  0  0  0  0
  112.6883  113.2593  112.3993 H   0  0  0  0  0
  114.0496  112.5983  113.0696 H   0  0  0  0  0
  120.1464  115.7062  111.4506 H   0  0  0  0  0
  120.7568  117.1445  112.2910 H   0  0  0  0  0
  114.3585  114.9358  112.1882 H   0  0  0  0  0
  114.5263  115.1030  110.4583 H   0  0  0  0  0
  113.6099  113.0546  110.1309 H   0  0  0  0  0
  115.0836  112.3119  110.8386 H   0  0  0  0  0
  118.8383  120.0899  107.8596 H   0  0  0  0  0
  120.4824  119.7497  108.4106 H   0  0  0  0  0
  120.1477  121.8160  110.0630 H   0  0  0  0  0
  118.6914  122.1918  109.0816 H   0  0  0  0  0
  120.6976  123.4588  108.2633 H   0  0  0  0  0
  120.1760  122.2930  107.0080 H   0  0  0  0  0
  121.6079  121.9355  108.0290 H   0  0  0  0  0
  122.7940  119.5872  110.7639 H   0  0  0  0  0
  121.9769  119.1620  109.2325 H   0  0  0  0  0
  124.1382  117.7719  108.6604 H   0  0  0  0  0
  124.9169  118.7022  109.9777 H   0  0  0  0  0
  125.2768  119.8129  107.7588 H   0  0  0  0  0
  124.2539  120.8625  108.7881 H   0  0  0  0  0
  123.5119  119.8947  107.4712 H   0  0  0  0  0
  115.8751  114.3425  114.6828 H   0  0  0  0  0
  113.0841  111.6911  112.0937 H   0  0  0  0  0
  1  2  1  0  0  0
  1  4  1  0  0  0
  1 17  1  0  0  0
  1 24  1  0  0  0
  2 21  1  0  0  0
  2 25  1  0  0  0
  2 26  1  0  0  0
  3  6  1  0  0  0
  3 27  1  0  0  0
  3 28  1  0  0  0
  4 18  1  0  0  0
  4 29  1  0  0  0
  4 30  1  0  0  0
  5  6  1  0  0  0
  5 22  1  0  0  0
  5 31  1  0  0  0
  5 32  1  0  0  0
  6 33  1  0  0  0
  6 34  1  0  0  0
  7  8  1  0  0  0
  7 15  2  0  0  0
  7 17  1  0  0  0
  8  9  1  0  0  0
  8 35  1  0  0  0
  8 36  1  0  0  0
  9 10  1  0  0  0
  9 37  1  0  0  0
  9 38  1  0  0  0
 10 39  1  0  0  0
 10 40  1  0  0  0
 10 41  1  0  0  0
 11 12  1  0  0  0
 11 16  2  0  0  0
 11 18  1  0  0  0
 12 13  1  0  0  0
 12 42  1  0  0  0
 12 43  1  0  0  0
 13 14  1  0  0  0
 13 44  1  0  0  0
 13 45  1  0  0  0
 14 46  1  0  0  0
 14 47  1  0  0  0
 14 48  1  0  0  0
 19 23  1  0  0  0
 20 23  2  0  0  0
 21 23  1  0  0  0
 22 23  1  0  0  0
 19 49  1  0  0  0
  3 50  1  0  0  0
M  END
$$$$
