DMS_2_A_403
  -ISIS-            3D

 10  9  0  0  0  0  0  0  0  0  1 V2000
   -2.3850  -18.9520   -7.9940 S   0  0  0  0  0
   -3.6400  -18.7970   -8.8850 O   0  0  0  0  0
   -1.0800  -18.0840   -8.8340 C   0  0  0  0  0
   -1.7990  -20.5930   -8.3400 C   0  0  0  0  0
   -0.1084  -18.2973   -8.3432 H   0  0  0  0  0
   -1.2748  -16.9933   -8.7818 H   0  0  0  0  0
   -1.0327  -18.3905   -9.8991 H   0  0  0  0  0
   -0.8068  -20.7463   -7.8684 H   0  0  0  0  0
   -1.7175  -20.7541   -9.4346 H   0  0  0  0  0
   -2.5117  -21.3318   -7.9196 H   0  0  0  0  0
  1  2  2  0  0  0
  1  3  1  0  0  0
  1  4  1  0  0  0
  3  5  1  0  0  0
  3  6  1  0  0  0
  3  7  1  0  0  0
  4  8  1  0  0  0
  4  9  1  0  0  0
  4 10  1  0  0  0
M  END
$$$$
