DMS_1_A_402
  -ISIS-            3D

 10  9  0  0  0  0  0  0  0  0  1 V2000
   -9.2250    1.7480    0.4400 S   0  0  0  0  0
   -8.1570    2.7560    0.0960 O   0  0  0  0  0
   -9.4110    0.6280   -0.9600 C   0  0  0  0  0
   -8.7700    0.6170    1.7880 C   0  0  0  0  0
  -10.2015   -0.1172   -0.7363 H   0  0  0  0  0
   -8.4518    0.1051   -1.1524 H   0  0  0  0  0
   -9.7006    1.2086   -1.8596 H   0  0  0  0  0
   -9.5870   -0.1159    1.9478 H   0  0  0  0  0
   -8.6133    1.2015    2.7175 H   0  0  0  0  0
   -7.8343    0.0819    1.5263 H   0  0  0  0  0
  1  2  2  0  0  0
  1  3  1  0  0  0
  1  4  1  0  0  0
  3  5  1  0  0  0
  3  6  1  0  0  0
  3  7  1  0  0  0
  4  8  1  0  0  0
  4  9  1  0  0  0
  4 10  1  0  0  0
M  END
$$$$
