DMS_2_A_401
  -ISIS-            3D

 10  9  0  0  0  0  0  0  0  0  1 V2000
   -9.5390   -0.1590  -16.2920 S   0  0  0  0  0
   -9.9050    0.5880  -17.5460 O   0  0  0  0  0
   -8.0740   -1.1190  -16.6410 C   0  0  0  0  0
  -10.7050   -1.5370  -16.0930 C   0  0  0  0  0
   -7.8348   -1.7670  -15.7729 H   0  0  0  0  0
   -7.2218   -0.4331  -16.8242 H   0  0  0  0  0
   -8.2337   -1.7479  -17.5405 H   0  0  0  0  0
  -10.3909   -2.1704  -15.2383 H   0  0  0  0  0
  -10.7341   -2.1467  -17.0191 H   0  0  0  0  0
  -11.7171   -1.1305  -15.8911 H   0  0  0  0  0
  1  2  2  0  0  0
  1  3  1  0  0  0
  1  4  1  0  0  0
  3  5  1  0  0  0
  3  6  1  0  0  0
  3  7  1  0  0  0
  4  8  1  0  0  0
  4  9  1  0  0  0
  4 10  1  0  0  0
M  END
$$$$
