DMS_1_A_404
  -ISIS-            3D

 10  9  0  0  0  0  0  0  0  0  1 V2000
    6.9970  -28.2770   21.5700 S   0  0  0  0  0
    7.7490  -27.2400   22.3280 O   0  0  0  0  0
    6.0180  -27.4450   20.3160 C   0  0  0  0  0
    5.6760  -29.0010   22.5780 C   0  0  0  0  0
    5.4087  -28.1896   19.7641 H   0  0  0  0  0
    6.6949  -26.9306   19.6035 H   0  0  0  0  0
    5.3499  -26.6973   20.7908 H   0  0  0  0  0
    5.0856  -29.7105   21.9629 H   0  0  0  0  0
    5.0129  -28.1991   22.9627 H   0  0  0  0  0
    6.1266  -29.5460   23.4325 H   0  0  0  0  0
  1  2  2  0  0  0
  1  3  1  0  0  0
  1  4  1  0  0  0
  3  5  1  0  0  0
  3  6  1  0  0  0
  3  7  1  0  0  0
  4  8  1  0  0  0
  4  9  1  0  0  0
  4 10  1  0  0  0
M  END
$$$$
