EDO_1_A_409
  -ISIS-            3D

 10  9  0  0  0  0  0  0  0  0  1 V2000
   12.5650    1.5020   -6.3980 C   0  0  0  0  0
   11.9840    2.7740   -6.4190 O   0  0  0  0  0
   12.4770    0.7460   -7.6390 C   0  0  0  0  0
   11.8090    1.4090   -8.6620 O   0  0  0  0  0
   12.0932    0.9286   -5.5718 H   0  0  0  0  0
   13.6284    1.6195   -6.0993 H   0  0  0  0  0
   11.6021    2.9001   -7.2797 H   0  0  0  0  0
   11.9679   -0.2247   -7.4526 H   0  0  0  0  0
   13.4985    0.4863   -7.9931 H   0  0  0  0  0
   11.7932    0.8533   -9.4298 H   0  0  0  0  0
  1  2  1  0  0  0
  1  3  1  0  0  0
  1  5  1  0  0  0
  1  6  1  0  0  0
  2  7  1  0  0  0
  3  4  1  0  0  0
  3  8  1  0  0  0
  3  9  1  0  0  0
  4 10  1  0  0  0
M  END
$$$$
