DMS_2_A_402
  -ISIS-            3D

 10  9  0  0  0  0  0  0  0  0  1 V2000
  -12.1070   15.1940   46.6100 S   0  0  0  0  0
  -12.1180   13.9370   47.4220 O   0  0  0  0  0
  -13.1890   14.9920   45.1590 C   0  0  0  0  0
  -12.9550   16.5030   47.5540 C   0  0  0  0  0
  -13.2296   15.9454   44.5937 H   0  0  0  0  0
  -14.2097   14.7108   45.4899 H   0  0  0  0  0
  -12.7791   14.1947   44.5059 H   0  0  0  0  0
  -13.0033   17.4265   46.9417 H   0  0  0  0  0
  -12.3875   16.7084   48.4846 H   0  0  0  0  0
  -13.9820   16.1725   47.8121 H   0  0  0  0  0
  1  2  2  0  0  0
  1  3  1  0  0  0
  1  4  1  0  0  0
  3  5  1  0  0  0
  3  6  1  0  0  0
  3  7  1  0  0  0
  4  8  1  0  0  0
  4  9  1  0  0  0
  4 10  1  0  0  0
M  END
$$$$
