DMS_2_A_404
  -ISIS-            3D

 10  9  0  0  0  0  0  0  0  0  1 V2000
  -18.8990   18.3190   14.8080 S   0  0  0  0  0
  -20.3160   17.9550   14.5020 O   0  0  0  0  0
  -18.8690   19.4090   16.2490 C   0  0  0  0  0
  -18.0100   16.8960   15.4980 C   0  0  0  0  0
  -17.8184   19.6391   16.5200 H   0  0  0  0  0
  -19.3757   18.9181   17.1051 H   0  0  0  0  0
  -19.3965   20.3534   16.0036 H   0  0  0  0  0
  -16.9837   17.2027   15.7860 H   0  0  0  0  0
  -17.9501   16.0971   14.7309 H   0  0  0  0  0
  -18.5483   16.5103   16.3880 H   0  0  0  0  0
  1  2  2  0  0  0
  1  3  1  0  0  0
  1  4  1  0  0  0
  3  5  1  0  0  0
  3  6  1  0  0  0
  3  7  1  0  0  0
  4  8  1  0  0  0
  4  9  1  0  0  0
  4 10  1  0  0  0
M  END
$$$$
