DMS_2_A_402
  -ISIS-            3D

 10  9  0  0  0  0  0  0  0  0  1 V2000
   -6.1190   -0.9690    6.2310 S   0  0  0  0  0
   -7.0990   -0.6890    7.3150 O   0  0  0  0  0
   -7.0580   -0.9180    4.7110 C   0  0  0  0  0
   -5.8410   -2.7210    6.2640 C   0  0  0  0  0
   -6.4271   -1.2666    3.8678 H   0  0  0  0  0
   -7.3759    0.1262    4.5129 H   0  0  0  0  0
   -7.9583   -1.5612    4.7908 H   0  0  0  0  0
   -5.2397   -3.0237    5.3824 H   0  0  0  0  0
   -6.8065   -3.2673    6.2580 H   0  0  0  0  0
   -5.2826   -2.9859    7.1852 H   0  0  0  0  0
  1  2  2  0  0  0
  1  3  1  0  0  0
  1  4  1  0  0  0
  3  5  1  0  0  0
  3  6  1  0  0  0
  3  7  1  0  0  0
  4  8  1  0  0  0
  4  9  1  0  0  0
  4 10  1  0  0  0
M  END
$$$$
