EDO_1_B_704
  -ISIS-            3D

 10  9  0  0  0  0  0  0  0  0  1 V2000
   17.8470    8.1230  -10.9370 C   0  0  0  0  0
   17.5930    9.5350  -10.9890 O   0  0  0  0  0
   18.2530    7.7100   -9.5230 C   0  0  0  0  0
   17.3350    6.7370   -9.0010 O   0  0  0  0  0
   18.6613    7.8855  -11.6525 H   0  0  0  0  0
   16.9486    7.5702  -11.2829 H   0  0  0  0  0
   16.7669    9.6998  -10.5533 H   0  0  0  0  0
   18.2607    8.5850   -8.8411 H   0  0  0  0  0
   19.2835    7.2961   -9.5142 H   0  0  0  0  0
   17.5912    5.8813   -9.3194 H   0  0  0  0  0
  1  2  1  0  0  0
  1  3  1  0  0  0
  1  5  1  0  0  0
  1  6  1  0  0  0
  2  7  1  0  0  0
  3  4  1  0  0  0
  3  8  1  0  0  0
  3  9  1  0  0  0
  4 10  1  0  0  0
M  END
$$$$
