EDO_1_A_402
  -ISIS-            3D

 10  9  0  0  0  0  0  0  0  0  1 V2000
   26.3830   -8.2900  -37.2080 C   0  0  0  0  0
   27.2130   -9.3600  -37.6730 O   0  0  0  0  0
   25.0130   -8.3660  -37.8740 C   0  0  0  0  0
   24.9180   -7.2730  -38.7960 O   0  0  0  0  0
   26.8753   -7.3149  -37.4068 H   0  0  0  0  0
   26.2726   -8.3787  -36.1063 H   0  0  0  0  0
   28.0900   -9.2204  -37.3409 H   0  0  0  0  0
   24.2058   -8.2742  -37.1170 H   0  0  0  0  0
   24.8704   -9.3307  -38.4039 H   0  0  0  0  0
   24.1231   -7.3812  -39.3011 H   0  0  0  0  0
  1  2  1  0  0  0
  1  3  1  0  0  0
  1  5  1  0  0  0
  1  6  1  0  0  0
  2  7  1  0  0  0
  3  4  1  0  0  0
  3  8  1  0  0  0
  3  9  1  0  0  0
  4 10  1  0  0  0
M  END
$$$$
