DMS_2_A_401
  -ISIS-            3D

 10  9  0  0  0  0  0  0  0  0  1 V2000
   -7.1020  -28.1560  -21.6310 S   0  0  0  0  0
   -7.8250  -27.0110  -22.2280 O   0  0  0  0  0
   -5.7280  -28.5170  -22.7070 C   0  0  0  0  0
   -6.1480  -27.4900  -20.2920 C   0  0  0  0  0
   -5.0666  -29.2712  -22.2335 H   0  0  0  0  0
   -5.1481  -27.5949  -22.9177 H   0  0  0  0  0
   -6.1114  -28.9279  -23.6632 H   0  0  0  0  0
   -5.4719  -28.2699  -19.8858 H   0  0  0  0  0
   -6.8324  -27.1565  -19.4854 H   0  0  0  0  0
   -5.5479  -26.6226  -20.6362 H   0  0  0  0  0
  1  2  2  0  0  0
  1  3  1  0  0  0
  1  4  1  0  0  0
  3  5  1  0  0  0
  3  6  1  0  0  0
  3  7  1  0  0  0
  4  8  1  0  0  0
  4  9  1  0  0  0
  4 10  1  0  0  0
M  END
$$$$
