ALD_1_A_402
  -ISIS-            3D

 77 77  0  0  0  0  0  0  0  0  1 V2000
  -21.8820  -10.3620  -31.0480 C   0  0  0  0  0
  -22.8860   -9.9280  -31.6010 O   0  0  0  0  0
  -21.0790  -11.3820  -31.6690 O   0  0  0  0  0
  -21.4900  -11.9510  -32.9250 C   0  0  0  0  0
  -22.5020  -13.0580  -32.7120 C   0  0  0  0  0
  -23.8630  -12.7620  -32.7570 C   0  0  0  0  0
  -24.7900  -13.7760  -32.5920 C   0  0  0  0  0
  -24.3670  -15.0800  -32.3780 C   0  0  0  0  0
  -23.0110  -15.3600  -32.2990 C   0  0  0  0  0
  -22.0830  -14.3450  -32.4790 C   0  0  0  0  0
  -21.4490   -9.9610  -29.8490 N   0  0  0  0  0
  -22.1320   -8.9430  -29.1150 C   0  0  0  0  0
  -21.3310   -7.6620  -29.1710 C   0  0  0  0  0
  -20.1250   -7.6740  -28.8750 O   0  0  0  0  0
  -22.2400   -9.3300  -27.6380 C   0  0  0  0  0
  -23.1910  -10.4770  -27.3640 C   0  0  0  0  0
  -23.4450  -10.5330  -25.8540 C   0  0  0  0  0
  -24.5240  -10.3190  -28.0870 C   0  0  0  0  0
  -21.9650   -6.5690  -29.5640 N   0  0  0  0  0
  -21.3630   -5.2670  -29.4270 C   0  0  0  0  0
  -21.2800   -4.7540  -28.0090 C   0  0  0  0  0
  -22.3000   -4.3600  -27.4600 O   0  0  0  0  0
  -22.1430   -4.3100  -30.2950 C   0  0  0  0  0
  -22.2760   -4.7870  -31.7420 C   0  0  0  0  0
  -20.9280   -4.8100  -32.4560 C   0  0  0  0  0
  -23.2610   -3.9170  -32.5230 C   0  0  0  0  0
  -20.0870   -4.7570  -27.3970 N   0  0  0  0  0
  -19.8450   -4.1900  -26.0720 C   0  0  0  0  0
  -19.4860   -2.6800  -26.2470 C   0  0  0  0  0
  -18.7610   -4.9160  -25.2860 C   0  0  0  0  0
  -19.0740   -6.4120  -25.1410 C   0  0  0  0  0
  -20.4790   -6.7130  -24.6490 C   0  0  0  0  0
  -18.0390   -7.0660  -24.2260 C   0  0  0  0  0
  -19.4930   -1.9520  -25.0260 O   0  0  0  0  0
  -20.6006  -12.3619  -33.4462 H   0  0  0  0  0
  -21.8990  -11.1753  -33.6045 H   0  0  0  0  0
  -24.2110  -11.7301  -32.9297 H   0  0  0  0  0
  -25.8687  -13.5472  -32.6346 H   0  0  0  0  0
  -25.1075  -15.8891  -32.2572 H   0  0  0  0  0
  -22.6710  -16.3917  -32.1048 H   0  0  0  0  0
  -21.0063  -14.5820  -32.4300 H   0  0  0  0  0
  -20.5887  -10.3733  -29.4669 H   0  0  0  0  0
  -23.1471   -8.7440  -29.5237 H   0  0  0  0  0
  -22.5947   -8.4330  -27.0766 H   0  0  0  0  0
  -21.2317   -9.5704  -27.2272 H   0  0  0  0  0
  -22.7179  -11.4354  -27.6888 H   0  0  0  0  0
  -24.0900  -11.3977  -25.5796 H   0  0  0  0  0
  -23.9501   -9.6159  -25.4762 H   0  0  0  0  0
  -22.4972  -10.6479  -25.2814 H   0  0  0  0  0
  -25.2587  -11.0849  -27.7515 H   0  0  0  0  0
  -24.4308  -10.4524  -29.1868 H   0  0  0  0  0
  -24.9883   -9.3243  -27.9026 H   0  0  0  0  0
  -22.9345   -6.6478  -29.8970 H   0  0  0  0  0
  -20.3223   -5.2923  -29.8292 H   0  0  0  0  0
  -21.6632   -3.3038  -30.2731 H   0  0  0  0  0
  -23.1650   -4.1756  -29.8693 H   0  0  0  0  0
  -22.6886   -5.8233  -31.7671 H   0  0  0  0  0
  -21.0372   -5.0977  -33.5257 H   0  0  0  0  0
  -20.2232   -5.5442  -32.0082 H   0  0  0  0  0
  -20.4289   -3.8155  -32.4360 H   0  0  0  0  0
  -23.3889   -4.2742  -33.5695 H   0  0  0  0  0
  -22.9257   -2.8570  -32.5752 H   0  0  0  0  0
  -24.2718   -3.9199  -32.0568 H   0  0  0  0  0
  -19.2938   -5.1921  -27.8898 H   0  0  0  0  0
  -20.7832   -4.2197  -25.4697 H   0  0  0  0  0
  -20.2207   -2.2111  -26.9386 H   0  0  0  0  0
  -18.4893   -2.5824  -26.7293 H   0  0  0  0  0
  -18.6667   -4.4546  -24.2759 H   0  0  0  0  0
  -17.7759   -4.7875  -25.7913 H   0  0  0  0  0
  -18.9660   -6.8860  -26.1482 H   0  0  0  0  0
  -20.6253   -7.8027  -24.4753 H   0  0  0  0  0
  -21.2623   -6.4128  -25.3786 H   0  0  0  0  0
  -20.7012   -6.1984  -23.6875 H   0  0  0  0  0
  -18.1835   -8.1679  -24.1619 H   0  0  0  0  0
  -18.0910   -6.6672  -23.1882 H   0  0  0  0  0
  -17.0011   -6.8991  -24.5921 H   0  0  0  0  0
  -19.3814   -1.0316  -25.2235 H   0  0  0  0  0
  1  2  2  0  0  0
  1  3  1  0  0  0
  1 11  1  0  0  0
  3  4  1  0  0  0
  4  5  1  0  0  0
  4 35  1  0  0  0
  4 36  1  0  0  0
  5  6  2  0  0  0
  5 10  1  0  0  0
  6  7  1  0  0  0
  6 37  1  0  0  0
  7  8  2  0  0  0
  7 38  1  0  0  0
  8  9  1  0  0  0
  8 39  1  0  0  0
  9 10  2  0  0  0
  9 40  1  0  0  0
 10 41  1  0  0  0
 11 12  1  0  0  0
 11 42  1  0  0  0
 12 13  1  0  0  0
 12 15  1  0  0  0
 12 43  1  0  0  0
 13 14  2  0  0  0
 13 19  1  0  0  0
 15 16  1  0  0  0
 15 44  1  0  0  0
 15 45  1  0  0  0
 16 17  1  0  0  0
 16 18  1  0  0  0
 16 46  1  0  0  0
 17 47  1  0  0  0
 17 48  1  0  0  0
 17 49  1  0  0  0
 18 50  1  0  0  0
 18 51  1  0  0  0
 18 52  1  0  0  0
 19 20  1  0  0  0
 19 53  1  0  0  0
 20 21  1  0  0  0
 20 23  1  0  0  0
 20 54  1  0  0  0
 21 22  2  0  0  0
 21 27  1  0  0  0
 23 24  1  0  0  0
 23 55  1  0  0  0
 23 56  1  0  0  0
 24 25  1  0  0  0
 24 26  1  0  0  0
 24 57  1  0  0  0
 25 58  1  0  0  0
 25 59  1  0  0  0
 25 60  1  0  0  0
 26 61  1  0  0  0
 26 62  1  0  0  0
 26 63  1  0  0  0
 27 28  1  0  0  0
 27 64  1  0  0  0
 28 29  1  0  0  0
 28 30  1  0  0  0
 28 65  1  0  0  0
 29 34  1  0  0  0
 29 66  1  0  0  0
 29 67  1  0  0  0
 30 31  1  0  0  0
 30 68  1  0  0  0
 30 69  1  0  0  0
 31 32  1  0  0  0
 31 33  1  0  0  0
 31 70  1  0  0  0
 32 71  1  0  0  0
 32 72  1  0  0  0
 32 73  1  0  0  0
 33 74  1  0  0  0
 33 75  1  0  0  0
 33 76  1  0  0  0
 34 77  1  0  0  0
M  END
$$$$
