DMS_2_A_401
  -ISIS-            3D

 10  9  0  0  0  0  0  0  0  0  1 V2000
   -6.9350  -28.0290  -21.4360 S   0  0  0  0  0
   -7.6830  -27.0710  -22.2890 O   0  0  0  0  0
   -5.7590  -28.8190  -22.5110 C   0  0  0  0  0
   -5.7890  -27.0690  -20.4980 C   0  0  0  0  0
   -5.0665  -29.4473  -21.9143 H   0  0  0  0  0
   -5.1778  -28.0600  -23.0740 H   0  0  0  0  0
   -6.2990  -29.4670  -23.2311 H   0  0  0  0  0
   -5.0971  -27.7390  -19.9477 H   0  0  0  0  0
   -6.3437  -26.4491  -19.7643 H   0  0  0  0  0
   -5.2045  -26.4014  -21.1640 H   0  0  0  0  0
  1  2  2  0  0  0
  1  3  1  0  0  0
  1  4  1  0  0  0
  3  5  1  0  0  0
  3  6  1  0  0  0
  3  7  1  0  0  0
  4  8  1  0  0  0
  4  9  1  0  0  0
  4 10  1  0  0  0
M  END
$$$$
