DMS_2_A_405
  -ISIS-            3D

 10  9  0  0  0  0  0  0  0  0  1 V2000
   -6.1750    0.1520  -18.2470 S   0  0  0  0  0
   -4.6830    0.1900  -18.1390 O   0  0  0  0  0
   -6.7420    1.4430  -17.1890 C   0  0  0  0  0
   -6.5520    0.9140  -19.8020 C   0  0  0  0  0
   -7.8323    1.5927  -17.3278 H   0  0  0  0  0
   -6.2094    2.3905  -17.4112 H   0  0  0  0  0
   -6.5526    1.1624  -16.1326 H   0  0  0  0  0
   -7.6465    1.0722  -19.8880 H   0  0  0  0  0
   -6.2213    0.2490  -20.6260 H   0  0  0  0  0
   -6.0302    1.8887  -19.8932 H   0  0  0  0  0
  1  2  2  0  0  0
  1  3  1  0  0  0
  1  4  1  0  0  0
  3  5  1  0  0  0
  3  6  1  0  0  0
  3  7  1  0  0  0
  4  8  1  0  0  0
  4  9  1  0  0  0
  4 10  1  0  0  0
M  END
$$$$
