DMS_1_A_402
  -ISIS-            3D

 10  9  0  0  0  0  0  0  0  0  1 V2000
    6.1220   -1.0550   -6.2530 S   0  0  0  0  0
    7.1150   -0.7640   -7.2990 O   0  0  0  0  0
    6.9940   -0.9820   -4.6850 C   0  0  0  0  0
    5.8350   -2.7900   -6.2580 C   0  0  0  0  0
    6.3234   -1.3143   -3.8663 H   0  0  0  0  0
    7.3065    0.0644   -4.4903 H   0  0  0  0  0
    7.8946   -1.6291   -4.7139 H   0  0  0  0  0
    5.1948   -3.0703   -5.3967 H   0  0  0  0  0
    6.7946   -3.3435   -6.2001 H   0  0  0  0  0
    5.3137   -3.0731   -7.1954 H   0  0  0  0  0
  1  2  2  0  0  0
  1  3  1  0  0  0
  1  4  1  0  0  0
  3  5  1  0  0  0
  3  6  1  0  0  0
  3  7  1  0  0  0
  4  8  1  0  0  0
  4  9  1  0  0  0
  4 10  1  0  0  0
M  END
$$$$
