DMS_2_A_401
  -ISIS-            3D

 10  9  0  0  0  0  0  0  0  0  1 V2000
   -6.9750  -27.9970  -21.5880 S   0  0  0  0  0
   -7.6870  -26.9780  -22.3830 O   0  0  0  0  0
   -5.7320  -28.6920  -22.6790 C   0  0  0  0  0
   -5.9100  -27.1130  -20.5110 C   0  0  0  0  0
   -5.0645  -29.3662  -22.1044 H   0  0  0  0  0
   -5.1314  -27.8828  -23.1430 H   0  0  0  0  0
   -6.2327  -29.2766  -23.4779 H   0  0  0  0  0
   -5.2376  -27.8189  -19.9824 H   0  0  0  0  0
   -6.5161  -26.5677  -19.7588 H   0  0  0  0  0
   -5.3003  -26.3819  -21.0806 H   0  0  0  0  0
  1  2  2  0  0  0
  1  3  1  0  0  0
  1  4  1  0  0  0
  3  5  1  0  0  0
  3  6  1  0  0  0
  3  7  1  0  0  0
  4  8  1  0  0  0
  4  9  1  0  0  0
  4 10  1  0  0  0
M  END
$$$$
