DMS_2_A_402
  -ISIS-            3D

 10  9  0  0  0  0  0  0  0  0  1 V2000
   -6.1980   -1.0860    6.2850 S   0  0  0  0  0
   -7.1790   -0.7980    7.3730 O   0  0  0  0  0
   -7.0750   -0.9810    4.7250 C   0  0  0  0  0
   -5.8790   -2.8330    6.2910 C   0  0  0  0  0
   -6.4067   -1.2961    3.8976 H   0  0  0  0  0
   -7.3912    0.0682    4.5533 H   0  0  0  0  0
   -7.9726   -1.6322    4.7458 H   0  0  0  0  0
   -5.2406   -3.1015    5.4244 H   0  0  0  0  0
   -6.8319   -3.3980    6.2377 H   0  0  0  0  0
   -5.3483   -3.1058    7.2260 H   0  0  0  0  0
  1  2  2  0  0  0
  1  3  1  0  0  0
  1  4  1  0  0  0
  3  5  1  0  0  0
  3  6  1  0  0  0
  3  7  1  0  0  0
  4  8  1  0  0  0
  4  9  1  0  0  0
  4 10  1  0  0  0
M  END
$$$$
