SHA_1_A_201
  -ISIS-            3D

 18 18  0  0  0  0  0  0  0  0  1 V2000
  -49.4710  -29.0310    5.4180 C   0  0  0  0  0
  -49.1620  -28.9450    6.7670 C   0  0  0  0  0
  -47.8190  -28.7590    7.1360 C   0  0  0  0  0
  -46.8120  -28.6870    6.1310 C   0  0  0  0  0
  -47.1260  -28.7800    4.8450 C   0  0  0  0  0
  -48.4650  -28.9550    4.4750 C   0  0  0  0  0
  -48.8220  -29.0600    3.0760 O   0  0  0  0  0
  -50.8680  -29.2500    4.8090 C   0  0  0  0  0
  -51.1760  -29.1930    3.6760 O   0  0  0  0  0
  -51.9550  -29.5730    5.5960 N   0  0  0  0  0
  -51.7590  -29.6430    6.8350 O   0  0  0  0  0
  -49.9052  -28.9885    7.5727 H   0  0  0  0  0
  -47.5422  -28.6720    8.2004 H   0  0  0  0  0
  -45.7604  -28.5485    6.4361 H   0  0  0  0  0
  -46.3364  -28.7202    4.0770 H   0  0  0  0  0
  -48.0672  -28.9760    2.5097 H   0  0  0  0  0
  -52.8751  -29.7209    5.1563 H   0  0  0  0  0
  -51.5078  -30.5202    7.0979 H   0  0  0  0  0
  1  2  2  0  0  0
  1  6  1  0  0  0
  1  8  1  0  0  0
  2  3  1  0  0  0
  2 12  1  0  0  0
  3  4  2  0  0  0
  3 13  1  0  0  0
  4  5  1  0  0  0
  4 14  1  0  0  0
  5  6  2  0  0  0
  5 15  1  0  0  0
  6  7  1  0  0  0
  7 16  1  0  0  0
  8  9  2  0  0  0
  8 10  1  0  0  0
 10 11  1  0  0  0
 10 17  1  0  0  0
 11 18  1  0  0  0
M  END
$$$$
