DMS_1_A_401
  -ISIS-            3D

 10  9  0  0  0  0  0  0  0  0  1 V2000
    7.1030  -28.2410   21.4200 S   0  0  0  0  0
    7.7440  -27.2220   22.2660 O   0  0  0  0  0
    5.7830  -28.9380   22.3750 C   0  0  0  0  0
    6.1510  -27.3820   20.2120 C   0  0  0  0  0
    5.1861  -29.6278   21.7440 H   0  0  0  0  0
    5.1256  -28.1353   22.7677 H   0  0  0  0  0
    6.2065  -29.5078   23.2272 H   0  0  0  0  0
    5.5471  -28.1040   19.6252 H   0  0  0  0  0
    6.8313  -26.8415   19.5226 H   0  0  0  0  0
    5.4762  -26.6496   20.7008 H   0  0  0  0  0
  1  2  2  0  0  0
  1  3  1  0  0  0
  1  4  1  0  0  0
  3  5  1  0  0  0
  3  6  1  0  0  0
  3  7  1  0  0  0
  4  8  1  0  0  0
  4  9  1  0  0  0
  4 10  1  0  0  0
M  END
$$$$
