K36_1_B_402
  -ISIS-            3D

 60 61  0  0  0  0  0  0  0  0  1 V2000
  -20.2530   -2.5960   -0.2220 C   0  0  0  0  0
  -20.9550   -3.7680    0.3270 O   0  0  0  0  0
  -20.7520   -4.0890    1.6660 C   0  0  0  0  0
  -20.0860   -3.3700    2.3860 O   0  0  0  0  0
  -18.8340   -2.9050   -0.7630 C   0  0  0  0  0
  -18.2610   -4.1660   -0.6190 C   0  0  0  0  0
  -16.9730   -4.4680   -1.0840 C   0  0  0  0  0
  -16.1930   -3.5150   -1.7390 C   0  0  0  0  0
  -16.7320   -2.2520   -1.8960 C   0  0  0  0  0
  -18.0190   -1.9490   -1.4170 C   0  0  0  0  0
  -21.3550   -5.2630    2.1760 N   0  0  0  0  0
  -21.0040   -5.7220    3.5310 C   0  0  0  0  0
  -19.4360   -5.9120    3.6080 C   0  0  0  0  0
  -18.8150   -6.3560    2.6430 O   0  0  0  0  0
  -21.7260   -7.0460    3.9070 C   0  0  0  0  0
  -23.2390   -6.9380    4.0310 C   0  0  0  0  0
  -23.9380   -8.2670    4.3820 C   0  0  0  0  0
  -23.6840   -5.8560    5.0340 C   0  0  0  0  0
  -18.7220   -5.5690    4.7360 N   0  0  0  0  0
  -17.3390   -5.7070    4.8510 C   0  0  0  0  0
  -17.0540   -6.6000    6.1280 C   0  0  0  0  0
  -15.6760   -6.6310    6.2150 O   0  0  0  0  0
  -16.5960   -4.2320    4.9580 C   0  0  0  0  0
  -16.7440   -3.3690    3.6730 C   0  0  0  0  0
  -15.9570   -4.0140    2.5200 C   0  0  0  0  0
  -15.0960   -2.9300    1.8840 C   0  0  0  0  0
  -15.2020   -1.7750    2.7850 N   0  0  0  0  0
  -16.1150   -1.9800    3.8080 C   0  0  0  0  0
  -16.3350   -1.1340    4.6520 O   0  0  0  0  0
  -20.1885   -1.7781    0.5250 H   0  0  0  0  0
  -20.8556   -2.1938   -1.0633 H   0  0  0  0  0
  -18.8271   -4.9678   -0.1164 H   0  0  0  0  0
  -16.5712   -5.4849   -0.9329 H   0  0  0  0  0
  -15.1849   -3.7601   -2.1126 H   0  0  0  0  0
  -16.1441   -1.4681   -2.4038 H   0  0  0  0  0
  -18.4090   -0.9261   -1.5578 H   0  0  0  0  0
  -21.9881   -5.7980    1.5692 H   0  0  0  0  0
  -21.2720   -4.9369    4.2750 H   0  0  0  0  0
  -21.3136   -7.4083    4.8774 H   0  0  0  0  0
  -21.4683   -7.8238    3.1513 H   0  0  0  0  0
  -23.6335   -6.6319    3.0302 H   0  0  0  0  0
  -25.0464   -8.1655    4.3845 H   0  0  0  0  0
  -23.6348   -8.6365    5.3871 H   0  0  0  0  0
  -23.6864   -9.0649    3.6478 H   0  0  0  0  0
  -24.7903   -5.8404    5.1547 H   0  0  0  0  0
  -23.3935   -4.8329    4.7099 H   0  0  0  0  0
  -23.2469   -6.0253    6.0435 H   0  0  0  0  0
  -19.2407   -5.1718    5.5315 H   0  0  0  0  0
  -16.9036   -6.2373    3.9733 H   0  0  0  0  0
  -17.4792   -7.6212    6.0233 H   0  0  0  0  0
  -17.4741   -6.1320    7.0428 H   0  0  0  0  0
  -15.3422   -7.3234    5.6595 H   0  0  0  0  0
  -15.5156   -4.3703    5.1890 H   0  0  0  0  0
  -17.0377   -3.6834    5.8217 H   0  0  0  0  0
  -17.8161   -3.2487    3.4018 H   0  0  0  0  0
  -16.6452   -4.4735    1.7765 H   0  0  0  0  0
  -15.2970   -4.8286    2.8954 H   0  0  0  0  0
  -15.4761   -2.6735    0.8703 H   0  0  0  0  0
  -14.0421   -3.2706    1.7709 H   0  0  0  0  0
  -14.6732   -0.8989    2.6898 H   0  0  0  0  0
  1  2  1  0  0  0
  1  5  1  0  0  0
  1 30  1  0  0  0
  1 31  1  0  0  0
  2  3  1  0  0  0
  3  4  2  0  0  0
  3 11  1  0  0  0
  5  6  2  0  0  0
  5 10  1  0  0  0
  6  7  1  0  0  0
  6 32  1  0  0  0
  7  8  2  0  0  0
  7 33  1  0  0  0
  8  9  1  0  0  0
  8 34  1  0  0  0
  9 10  2  0  0  0
  9 35  1  0  0  0
 10 36  1  0  0  0
 11 12  1  0  0  0
 11 37  1  0  0  0
 12 13  1  0  0  0
 12 15  1  0  0  0
 12 38  1  0  0  0
 13 14  2  0  0  0
 13 19  1  0  0  0
 15 16  1  0  0  0
 15 39  1  0  0  0
 15 40  1  0  0  0
 16 17  1  0  0  0
 16 18  1  0  0  0
 16 41  1  0  0  0
 17 42  1  0  0  0
 17 43  1  0  0  0
 17 44  1  0  0  0
 18 45  1  0  0  0
 18 46  1  0  0  0
 18 47  1  0  0  0
 19 20  1  0  0  0
 19 48  1  0  0  0
 20 21  1  0  0  0
 20 23  1  0  0  0
 20 49  1  0  0  0
 21 22  1  0  0  0
 21 50  1  0  0  0
 21 51  1  0  0  0
 22 52  1  0  0  0
 23 24  1  0  0  0
 23 53  1  0  0  0
 23 54  1  0  0  0
 24 25  1  0  0  0
 24 28  1  0  0  0
 24 55  1  0  0  0
 25 26  1  0  0  0
 25 56  1  0  0  0
 25 57  1  0  0  0
 26 27  1  0  0  0
 26 58  1  0  0  0
 26 59  1  0  0  0
 27 28  1  0  0  0
 27 60  1  0  0  0
 28 29  2  0  0  0
M  END
$$$$
