DMS_2_A_403
  -ISIS-            3D

 10  9  0  0  0  0  0  0  0  0  1 V2000
   -2.3120  -19.0060   -8.2640 S   0  0  0  0  0
   -3.5340  -18.6880   -9.0790 O   0  0  0  0  0
   -0.9770  -18.1050   -9.0090 C   0  0  0  0  0
   -1.8070  -20.6350   -8.7550 C   0  0  0  0  0
   -0.0148  -18.4071   -8.5470 H   0  0  0  0  0
   -1.1290  -17.0191   -8.8409 H   0  0  0  0  0
   -0.9402  -18.2994  -10.1005 H   0  0  0  0  0
   -0.8254  -20.8783   -8.2992 H   0  0  0  0  0
   -1.7278  -20.6994   -9.8596 H   0  0  0  0  0
   -2.5571  -21.3727   -8.4034 H   0  0  0  0  0
  1  2  2  0  0  0
  1  3  1  0  0  0
  1  4  1  0  0  0
  3  5  1  0  0  0
  3  6  1  0  0  0
  3  7  1  0  0  0
  4  8  1  0  0  0
  4  9  1  0  0  0
  4 10  1  0  0  0
M  END
$$$$
