DMS_2_A_402
  -ISIS-            3D

 10  9  0  0  0  0  0  0  0  0  1 V2000
   -6.1130   -1.1250    6.1150 S   0  0  0  0  0
   -6.5630   -0.6760    7.4770 O   0  0  0  0  0
   -7.5240   -0.9650    5.0520 C   0  0  0  0  0
   -6.0510   -2.8970    6.1740 C   0  0  0  0  0
   -7.3027   -1.4143    4.0623 H   0  0  0  0  0
   -7.7576    0.1103    4.9123 H   0  0  0  0  0
   -8.4047   -1.4704    5.4989 H   0  0  0  0  0
   -5.8638   -3.3012    5.1582 H   0  0  0  0  0
   -7.0060   -3.3050    6.5641 H   0  0  0  0  0
   -5.2240   -3.2127    6.8425 H   0  0  0  0  0
  1  2  2  0  0  0
  1  3  1  0  0  0
  1  4  1  0  0  0
  3  5  1  0  0  0
  3  6  1  0  0  0
  3  7  1  0  0  0
  4  8  1  0  0  0
  4  9  1  0  0  0
  4 10  1  0  0  0
M  END
$$$$
