1SQ_1_A_201
  -ISIS-            3D

 19 20  0  0  0  0  0  0  0  0  1 V2000
  -47.7790  -28.8090    7.4080 N   0  0  0  0  0
  -46.5160  -29.0570    6.7550 C   0  0  0  0  0
  -45.4240  -29.1840    7.4890 N   0  0  0  0  0
  -44.2390  -29.4020    6.9360 C   0  0  0  0  0
  -44.1190  -29.5250    5.5600 C   0  0  0  0  0
  -45.2740  -29.4000    4.7320 C   0  0  0  0  0
  -45.1840  -29.5090    3.3150 C   0  0  0  0  0
  -46.3240  -29.3850    2.5310 C   0  0  0  0  0
  -47.5470  -29.1270    3.1420 C   0  0  0  0  0
  -47.6340  -29.0210    4.5180 C   0  0  0  0  0
  -46.4760  -29.1540    5.3360 C   0  0  0  0  0
  -47.7063  -28.7538    8.4316 H   0  0  0  0  0
  -48.6343  -28.7065    6.8522 H   0  0  0  0  0
  -43.3565  -29.4924    7.5903 H   0  0  0  0  0
  -43.1311  -29.7159    5.1091 H   0  0  0  0  0
  -44.2093  -29.6986    2.8346 H   0  0  0  0  0
  -46.2590  -29.4810    1.4340 H   0  0  0  0  0
  -48.4534  -29.0141    2.5228 H   0  0  0  0  0
  -48.6273  -28.8277    4.9496 H   0  0  0  0  0
  1  2  1  0  0  0
  1 12  1  0  0  0
  1 13  1  0  0  0
  2  3  2  0  0  0
  2 11  1  0  0  0
  3  4  1  0  0  0
  4  5  2  0  0  0
  4 14  1  0  0  0
  5  6  1  0  0  0
  5 15  1  0  0  0
  6  7  2  0  0  0
  6 11  1  0  0  0
  7  8  1  0  0  0
  7 16  1  0  0  0
  8  9  2  0  0  0
  8 17  1  0  0  0
  9 10  1  0  0  0
  9 18  1  0  0  0
 10 11  2  0  0  0
 10 19  1  0  0  0
M  END
$$$$
