SAM_1_A_7101
  -ISIS-            3D

 50 52  0  0  0  0  0  0  0  0  1 V2000
   80.6030   18.4800   -0.8310 N   0  3  0  0  0
   79.2430   17.9570   -0.5980 C   0  0  0  0  0
   78.2420   18.8380   -1.3480 C   0  0  0  0  0
   78.5560   19.2860   -2.4660 O   0  0  0  0  0
   77.1420   19.1040   -0.8760 O   0  0  0  0  0
   78.9280   17.9250    0.9010 C   0  0  0  0  0
   79.9140   17.0590    1.6690 C   0  0  0  0  0
   79.3980   16.7230    3.3670 S   0  0  0  0  0
   79.5990   18.3230    4.1200 C   0  0  0  0  0
   80.9000   15.8740    3.9270 C   0  0  0  0  0
   81.0470   14.5000    3.3020 C   0  0  0  0  0
   82.3130   13.9070    3.6770 O   0  0  0  0  0
   79.9760   13.4870    3.7170 C   0  0  0  0  0
   79.1620   13.1690    2.5950 O   0  0  0  0  0
   80.7760   12.2730    4.2140 C   0  0  0  0  0
   80.2530   11.0360    3.7860 O   0  0  0  0  0
   82.1370   12.5170    3.5760 C   0  0  0  0  0
   83.2300   11.7990    4.2280 N   0  0  0  0  0
   83.6170   11.8840    5.5400 C   0  0  0  0  0
   84.6090   11.0850    5.8440 N   0  0  0  0  0
   84.8870   10.4170    4.6620 C   0  0  0  0  0
   85.8330    9.4280    4.3310 C   0  0  0  0  0
   86.6970    8.9130    5.1990 N   0  0  0  0  0
   85.8470    8.9700    3.0560 N   0  0  0  0  0
   84.9720    9.4900    2.1880 C   0  0  0  0  0
   84.0320   10.4090    2.3900 N   0  0  0  0  0
   84.0410   10.8450    3.6600 C   0  0  0  0  0
   81.3062   17.8723   -0.4234 H   0  0  0  0  0
   80.7100   19.4085   -0.4321 H   0  0  0  0  0
   79.1700   16.9249   -1.0168 H   0  0  0  0  0
   77.9000   17.5181    1.0447 H   0  0  0  0  0
   78.9264   18.9597    1.3136 H   0  0  0  0  0
   80.9214   17.5298    1.6907 H   0  0  0  0  0
   80.0136   16.0821    1.1467 H   0  0  0  0  0
   79.5138   18.2388    5.2251 H   0  0  0  0  0
   78.8060   19.0220    3.7778 H   0  0  0  0  0
   80.5837   18.7833    3.8897 H   0  0  0  0  0
   80.8611   15.7863    5.0350 H   0  0  0  0  0
   81.7901   16.4972    3.6908 H   0  0  0  0  0
   81.0490   14.5942    2.1950 H   0  0  0  0  0
   79.3389   13.8761    4.5381 H   0  0  0  0  0
   78.9238   12.2526    2.6771 H   0  0  0  0  0
   80.8474   12.3055    5.3219 H   0  0  0  0  0
   80.8722   10.3601    4.0309 H   0  0  0  0  0
   82.1212   12.2213    2.5047 H   0  0  0  0  0
   83.2042   12.5274    6.3281 H   0  0  0  0  0
   85.0282    9.0873    1.1619 H   0  0  0  0  0
   87.3237    8.1915    4.8216 H   0  0  0  0  0
   86.6715    9.2712    6.1622 H   0  0  0  0  0
   80.8066   18.5352   -1.8246 H   0  0  0  0  0
  1  2  1  0  0  0
  1 28  1  0  0  0
  1 29  1  0  0  0
  2  3  1  0  0  0
  2  6  1  0  0  0
  2 30  1  0  0  0
  3  4  2  0  0  0
  3  5  2  0  0  0
  6  7  1  0  0  0
  6 31  1  0  0  0
  6 32  1  0  0  0
  7  8  1  0  0  0
  7 33  1  0  0  0
  7 34  1  0  0  0
  8  9  1  0  0  0
  8 10  1  0  0  0
  9 35  1  0  0  0
  9 36  1  0  0  0
  9 37  1  0  0  0
 10 11  1  0  0  0
 10 38  1  0  0  0
 10 39  1  0  0  0
 11 12  1  0  0  0
 11 13  1  0  0  0
 11 40  1  0  0  0
 12 17  1  0  0  0
 13 14  1  0  0  0
 13 15  1  0  0  0
 13 41  1  0  0  0
 14 42  1  0  0  0
 15 16  1  0  0  0
 15 17  1  0  0  0
 15 43  1  0  0  0
 16 44  1  0  0  0
 17 18  1  0  0  0
 17 45  1  0  0  0
 18 19  1  0  0  0
 18 27  1  0  0  0
 19 20  2  0  0  0
 19 46  1  0  0  0
 20 21  1  0  0  0
 21 22  2  0  0  0
 21 27  1  0  0  0
 22 23  1  0  0  0
 22 24  1  0  0  0
 23 48  1  0  0  0
 23 49  1  0  0  0
 24 25  2  0  0  0
 25 26  1  0  0  0
 25 47  1  0  0  0
 26 27  2  0  0  0
  1 50  1  0  0  0
M  END
$$$$
