DMS_2_A_1003
  -ISIS-            3D

 10  9  0  0  0  0  0  0  0  0  1 V2000
   -6.2510   -1.0740    6.3600 S   0  0  0  0  0
   -7.2180   -0.7390    7.4030 O   0  0  0  0  0
   -7.2570   -1.1750    4.9050 C   0  0  0  0  0
   -5.9020   -2.7820    6.5670 C   0  0  0  0  0
   -6.6592   -1.5800    4.0630 H   0  0  0  0  0
   -7.6146   -0.1608    4.6331 H   0  0  0  0  0
   -8.1333   -1.8317    5.0824 H   0  0  0  0  0
   -5.3165   -3.1544    5.7016 H   0  0  0  0  0
   -6.8421   -3.3646    6.6517 H   0  0  0  0  0
   -5.3045   -2.9271    7.4902 H   0  0  0  0  0
  1  2  2  0  0  0
  1  3  1  0  0  0
  1  4  1  0  0  0
  3  5  1  0  0  0
  3  6  1  0  0  0
  3  7  1  0  0  0
  4  8  1  0  0  0
  4  9  1  0  0  0
  4 10  1  0  0  0
M  END
$$$$
