DMS_2_A_402
  -ISIS-            3D

 10  9  0  0  0  0  0  0  0  0  1 V2000
   -2.2370  -19.2360   -8.2900 S   0  0  0  0  0
   -3.4420  -18.6050   -8.9320 O   0  0  0  0  0
   -0.8290  -18.3910   -8.9550 C   0  0  0  0  0
   -1.9980  -20.7880   -9.1160 C   0  0  0  0  0
    0.1024  -18.9020   -8.6360 H   0  0  0  0  0
   -0.8133  -17.3492   -8.5743 H   0  0  0  0  0
   -0.8777  -18.3692  -10.0631 H   0  0  0  0  0
   -1.0392  -21.2427   -8.7932 H   0  0  0  0  0
   -1.9870  -20.6438  -10.2159 H   0  0  0  0  0
   -2.8270  -21.4756   -8.8506 H   0  0  0  0  0
  1  2  2  0  0  0
  1  3  1  0  0  0
  1  4  1  0  0  0
  3  5  1  0  0  0
  3  6  1  0  0  0
  3  7  1  0  0  0
  4  8  1  0  0  0
  4  9  1  0  0  0
  4 10  1  0  0  0
M  END
$$$$
