DMS_1_A_404
  -ISIS-            3D

 10  9  0  0  0  0  0  0  0  0  1 V2000
   20.8590   14.4340    7.4030 S   0  0  0  0  0
   22.0580   15.2320    7.6820 O   0  0  0  0  0
   20.7940   13.2340    8.6960 C   0  0  0  0  0
   21.3330   13.3610    6.0890 C   0  0  0  0  0
   20.0098   12.4819    8.4730 H   0  0  0  0  0
   20.5435   13.7369    9.6525 H   0  0  0  0  0
   21.7733   12.7236    8.8034 H   0  0  0  0  0
   20.5403   12.6049    5.9151 H   0  0  0  0  0
   22.2856   12.8458    6.3303 H   0  0  0  0  0
   21.4695   13.9531    5.1609 H   0  0  0  0  0
  1  2  2  0  0  0
  1  3  1  0  0  0
  1  4  1  0  0  0
  3  5  1  0  0  0
  3  6  1  0  0  0
  3  7  1  0  0  0
  4  8  1  0  0  0
  4  9  1  0  0  0
  4 10  1  0  0  0
M  END
$$$$
