EDO_1_A_305
  -ISIS-            3D

 10  9  0  0  0  0  0  0  0  0  1 V2000
    6.3840   18.2530   -1.6700 C   0  0  0  0  0
    6.1810   17.2020   -2.6210 O   0  0  0  0  0
    7.8370   18.7090   -1.7170 C   0  0  0  0  0
    8.0420   19.7550   -0.7610 O   0  0  0  0  0
    6.1258   17.8847   -0.6546 H   0  0  0  0  0
    5.7067   19.1017   -1.9035 H   0  0  0  0  0
    5.2606   16.9737   -2.6199 H   0  0  0  0  0
    8.0856   19.0960   -2.7269 H   0  0  0  0  0
    8.5265   17.8635   -1.5095 H   0  0  0  0  0
    8.2360   19.3601    0.0788 H   0  0  0  0  0
  1  2  1  0  0  0
  1  3  1  0  0  0
  1  5  1  0  0  0
  1  6  1  0  0  0
  2  7  1  0  0  0
  3  4  1  0  0  0
  3  8  1  0  0  0
  3  9  1  0  0  0
  4 10  1  0  0  0
M  END
$$$$
