EDO_1_M_204
  -ISIS-            3D

 10  9  0  0  0  0  0  0  0  0  1 V2000
   -3.2100    2.3220   32.8820 C   0  0  0  0  0
   -1.8580    2.1010   33.3040 O   0  0  0  0  0
   -3.5050    1.4810   31.6460 C   0  0  0  0  0
   -3.4450    0.0910   31.9830 O   0  0  0  0  0
   -3.3479    3.3989   32.6475 H   0  0  0  0  0
   -3.9087    2.0711   33.7076 H   0  0  0  0  0
   -1.6924    2.6299   34.0734 H   0  0  0  0  0
   -2.7688    1.6924   30.8435 H   0  0  0  0  0
   -4.5107    1.7201   31.2406 H   0  0  0  0  0
   -4.1273   -0.1017   32.6129 H   0  0  0  0  0
  1  2  1  0  0  0
  1  3  1  0  0  0
  1  5  1  0  0  0
  1  6  1  0  0  0
  2  7  1  0  0  0
  3  4  1  0  0  0
  3  8  1  0  0  0
  3  9  1  0  0  0
  4 10  1  0  0  0
M  END
$$$$
