EDO_1_M_203
  -ISIS-            3D

 10  9  0  0  0  0  0  0  0  0  1 V2000
   -7.2990    4.8430   42.8810 C   0  0  0  0  0
   -8.6740    4.7790   42.4860 O   0  0  0  0  0
   -7.1910    5.5260   44.2390 C   0  0  0  0  0
   -7.5940    6.8960   44.1270 O   0  0  0  0  0
   -6.7103    5.3895   42.1145 H   0  0  0  0  0
   -6.8881    3.8129   42.9422 H   0  0  0  0  0
   -8.7243    4.3593   41.6369 H   0  0  0  0  0
   -6.1485    5.4779   44.6186 H   0  0  0  0  0
   -7.8350    5.0176   44.9857 H   0  0  0  0  0
   -6.9874    7.3478   43.5554 H   0  0  0  0  0
  1  2  1  0  0  0
  1  3  1  0  0  0
  1  5  1  0  0  0
  1  6  1  0  0  0
  2  7  1  0  0  0
  3  4  1  0  0  0
  3  8  1  0  0  0
  3  9  1  0  0  0
  4 10  1  0  0  0
M  END
$$$$
