DMS_1_A_405
  -ISIS-            3D

 10  9  0  0  0  0  0  0  0  0  1 V2000
    6.5400    0.2630   18.0700 S   0  0  0  0  0
    6.6430    1.3810   17.0870 O   0  0  0  0  0
    7.2370    0.8500   19.5880 C   0  0  0  0  0
    4.8590    0.2270   18.5870 C   0  0  0  0  0
    7.0577    0.1118   20.3962 H   0  0  0  0  0
    6.7869    1.8240   19.8705 H   0  0  0  0  0
    8.3311    0.9825   19.4620 H   0  0  0  0  0
    4.7352   -0.4927   19.4218 H   0  0  0  0  0
    4.2205   -0.0979   17.7401 H   0  0  0  0  0
    4.5316    1.2343   18.9174 H   0  0  0  0  0
  1  2  2  0  0  0
  1  3  1  0  0  0
  1  4  1  0  0  0
  3  5  1  0  0  0
  3  6  1  0  0  0
  3  7  1  0  0  0
  4  8  1  0  0  0
  4  9  1  0  0  0
  4 10  1  0  0  0
M  END
$$$$
