DMS_2_A_401
  -ISIS-            3D

 10  9  0  0  0  0  0  0  0  0  1 V2000
   -6.9910  -27.9860  -21.5800 S   0  0  0  0  0
   -7.7140  -27.0650  -22.4570 O   0  0  0  0  0
   -5.7010  -28.6870  -22.5660 C   0  0  0  0  0
   -5.9880  -26.9770  -20.5510 C   0  0  0  0  0
   -5.0200  -29.2848  -21.9265 H   0  0  0  0  0
   -5.1227  -27.8882  -23.0746 H   0  0  0  0  0
   -6.1459  -29.3533  -23.3333 H   0  0  0  0  0
   -5.2993  -27.6107  -19.9557 H   0  0  0  0  0
   -6.6339  -26.4035  -19.8549 H   0  0  0  0  0
   -5.3962  -26.2639  -21.1613 H   0  0  0  0  0
  1  2  2  0  0  0
  1  3  1  0  0  0
  1  4  1  0  0  0
  3  5  1  0  0  0
  3  6  1  0  0  0
  3  7  1  0  0  0
  4  8  1  0  0  0
  4  9  1  0  0  0
  4 10  1  0  0  0
M  END
$$$$
