DMS_1_A_401
  -ISIS-            3D

 10  9  0  0  0  0  0  0  0  0  1 V2000
    7.0220  -28.1300   21.4720 S   0  0  0  0  0
    7.6690  -27.0830   22.2530 O   0  0  0  0  0
    5.6970  -28.7090   22.5250 C   0  0  0  0  0
    6.0780  -27.2720   20.2560 C   0  0  0  0  0
    5.0437  -29.4015   21.9559 H   0  0  0  0  0
    5.0951  -27.8528   22.8931 H   0  0  0  0  0
    6.1272  -29.2510   23.3920 H   0  0  0  0  0
    5.4205  -27.9859   19.7192 H   0  0  0  0  0
    6.7631  -26.7972   19.5242 H   0  0  0  0  0
    5.4555  -26.4863   20.7314 H   0  0  0  0  0
  1  2  2  0  0  0
  1  3  1  0  0  0
  1  4  1  0  0  0
  3  5  1  0  0  0
  3  6  1  0  0  0
  3  7  1  0  0  0
  4  8  1  0  0  0
  4  9  1  0  0  0
  4 10  1  0  0  0
M  END
$$$$
