DMS_1_A_403
  -ISIS-            3D

 10  9  0  0  0  0  0  0  0  0  1 V2000
    2.3960  -18.8390    8.0820 S   0  0  0  0  0
    3.6340  -18.7770    8.9040 O   0  0  0  0  0
    1.1830  -18.0260    9.0810 C   0  0  0  0  0
    1.8020  -20.4690    8.4480 C   0  0  0  0  0
    0.1683  -18.2132    8.6738 H   0  0  0  0  0
    1.3724  -16.9330    9.0662 H   0  0  0  0  0
    1.2314  -18.3813   10.1309 H   0  0  0  0  0
    0.7692  -20.5916    8.0623 H   0  0  0  0  0
    1.8128  -20.6593    9.5410 H   0  0  0  0  0
    2.4545  -21.2152    7.9498 H   0  0  0  0  0
  1  2  2  0  0  0
  1  3  1  0  0  0
  1  4  1  0  0  0
  3  5  1  0  0  0
  3  6  1  0  0  0
  3  7  1  0  0  0
  4  8  1  0  0  0
  4  9  1  0  0  0
  4 10  1  0  0  0
M  END
$$$$
