DMS_2_A_1002
  -ISIS-            3D

 10  9  0  0  0  0  0  0  0  0  1 V2000
   -6.9280  -28.0500  -21.5130 S   0  0  0  0  0
   -7.6400  -27.0760  -22.3440 O   0  0  0  0  0
   -5.6090  -28.6520  -22.5390 C   0  0  0  0  0
   -5.9970  -27.0960  -20.3720 C   0  0  0  0  0
   -4.9264  -29.2866  -21.9377 H   0  0  0  0  0
   -5.0384  -27.8046  -22.9718 H   0  0  0  0  0
   -6.0328  -29.2619  -23.3629 H   0  0  0  0  0
   -5.3089  -27.7548  -19.8039 H   0  0  0  0  0
   -6.6850  -26.5987  -19.6581 H   0  0  0  0  0
   -5.4071  -26.3212  -20.9035 H   0  0  0  0  0
  1  2  2  0  0  0
  1  3  1  0  0  0
  1  4  1  0  0  0
  3  5  1  0  0  0
  3  6  1  0  0  0
  3  7  1  0  0  0
  4  8  1  0  0  0
  4  9  1  0  0  0
  4 10  1  0  0  0
M  END
$$$$
