K36_1_A_401
  -ISIS-            3D

 60 61  0  0  0  0  0  0  0  0  1 V2000
    8.9490   25.8170   25.9560 C   0  0  0  0  0
   10.1040   25.4130   26.6870 O   0  0  0  0  0
   10.4800   24.0840   26.6130 C   0  0  0  0  0
   10.0220   23.3470   25.7700 O   0  0  0  0  0
    7.5900   25.8080   26.7460 C   0  0  0  0  0
    7.4870   25.3410   28.0690 C   0  0  0  0  0
    6.2720   25.3350   28.7660 C   0  0  0  0  0
    5.0920   25.8020   28.1690 C   0  0  0  0  0
    5.1630   26.2800   26.8590 C   0  0  0  0  0
    6.3790   26.2850   26.1630 C   0  0  0  0  0
   11.3900   23.6000   27.5470 N   0  0  0  0  0
   11.6310   22.1330   27.6700 C   0  0  0  0  0
   10.3360   21.5070   28.1700 C   0  0  0  0  0
    9.6740   22.1400   28.9820 O   0  0  0  0  0
   12.7420   21.7880   28.6550 C   0  0  0  0  0
   14.1170   22.2370   28.2210 C   0  0  0  0  0
   15.1890   22.1020   29.3700 C   0  0  0  0  0
   14.5800   21.4450   27.0080 C   0  0  0  0  0
    9.8890   20.2860   27.7180 N   0  0  0  0  0
    8.6510   19.6970   28.2070 C   0  0  0  0  0
    8.9440   18.3330   28.8260 C   0  0  0  0  0
    7.7000   17.8030   29.2370 O   0  0  0  0  0
    7.5540   19.6220   27.0390 C   0  0  0  0  0
    7.1480   21.0170   26.4880 C   0  0  0  0  0
    6.3380   21.8460   27.4990 C   0  0  0  0  0
    5.1590   22.4860   26.6900 C   0  0  0  0  0
    5.0630   21.6780   25.5030 N   0  0  0  0  0
    6.1340   20.8470   25.3240 C   0  0  0  0  0
    6.2150   20.1080   24.3860 O   0  0  0  0  0
    8.8167   25.2233   25.0283 H   0  0  0  0  0
    9.1136   26.8602   25.6122 H   0  0  0  0  0
    8.3889   24.9620   28.5788 H   0  0  0  0  0
    6.2435   24.9550   29.8017 H   0  0  0  0  0
    4.1369   25.7938   28.7201 H   0  0  0  0  0
    4.2506   26.6574   26.3662 H   0  0  0  0  0
    6.3993   26.6689   25.1284 H   0  0  0  0  0
   11.8380   24.2659   28.1885 H   0  0  0  0  0
   11.8634   21.6986   26.6710 H   0  0  0  0  0
   12.7541   20.6870   28.8300 H   0  0  0  0  0
   12.5006   22.2512   29.6401 H   0  0  0  0  0
   14.0731   23.3174   27.9401 H   0  0  0  0  0
   16.1868   22.4710   29.0430 H   0  0  0  0  0
   15.3108   21.0440   29.6932 H   0  0  0  0  0
   14.8977   22.6940   30.2663 H   0  0  0  0  0
   15.6122   21.7322   26.7064 H   0  0  0  0  0
   13.9396   21.6149   26.1155 H   0  0  0  0  0
   14.5937   20.3495   27.2036 H   0  0  0  0  0
   10.4382   19.7833   27.0075 H   0  0  0  0  0
    8.2103   20.3251   29.0164 H   0  0  0  0  0
    9.6272   18.4304   29.6973 H   0  0  0  0  0
    9.4175   17.6538   28.0849 H   0  0  0  0  0
    7.8499   16.9590   29.6416 H   0  0  0  0  0
    6.6447   19.0929   27.4042 H   0  0  0  0  0
    7.9696   19.0049   26.2092 H   0  0  0  0  0
    8.0306   21.5848   26.1170 H   0  0  0  0  0
    6.9644   22.6167   27.9976 H   0  0  0  0  0
    5.9175   21.1886   28.2939 H   0  0  0  0  0
    5.3999   23.5394   26.4296 H   0  0  0  0  0
    4.2194   22.4833   27.2864 H   0  0  0  0  0
    4.2809   21.7071   24.8365 H   0  0  0  0  0
  1  2  1  0  0  0
  1  5  1  0  0  0
  1 30  1  0  0  0
  1 31  1  0  0  0
  2  3  1  0  0  0
  3  4  2  0  0  0
  3 11  1  0  0  0
  5  6  2  0  0  0
  5 10  1  0  0  0
  6  7  1  0  0  0
  6 32  1  0  0  0
  7  8  2  0  0  0
  7 33  1  0  0  0
  8  9  1  0  0  0
  8 34  1  0  0  0
  9 10  2  0  0  0
  9 35  1  0  0  0
 10 36  1  0  0  0
 11 12  1  0  0  0
 11 37  1  0  0  0
 12 13  1  0  0  0
 12 15  1  0  0  0
 12 38  1  0  0  0
 13 14  2  0  0  0
 13 19  1  0  0  0
 15 16  1  0  0  0
 15 39  1  0  0  0
 15 40  1  0  0  0
 16 17  1  0  0  0
 16 18  1  0  0  0
 16 41  1  0  0  0
 17 42  1  0  0  0
 17 43  1  0  0  0
 17 44  1  0  0  0
 18 45  1  0  0  0
 18 46  1  0  0  0
 18 47  1  0  0  0
 19 20  1  0  0  0
 19 48  1  0  0  0
 20 21  1  0  0  0
 20 23  1  0  0  0
 20 49  1  0  0  0
 21 22  1  0  0  0
 21 50  1  0  0  0
 21 51  1  0  0  0
 22 52  1  0  0  0
 23 24  1  0  0  0
 23 53  1  0  0  0
 23 54  1  0  0  0
 24 25  1  0  0  0
 24 28  1  0  0  0
 24 55  1  0  0  0
 25 26  1  0  0  0
 25 56  1  0  0  0
 25 57  1  0  0  0
 26 27  1  0  0  0
 26 58  1  0  0  0
 26 59  1  0  0  0
 27 28  1  0  0  0
 27 60  1  0  0  0
 28 29  2  0  0  0
M  END
$$$$
