SFG_1_A_7103
  -ISIS-            3D

 50 52  0  0  0  0  0  0  0  0  1 V2000
   80.6410   18.6380   -0.8610 N   0  3  0  0  0
   79.2980   18.1640   -0.5720 C   0  0  0  0  0
   78.2860   19.0010   -1.3240 C   0  0  0  0  0
   77.1680   19.2360   -0.8090 O   0  0  0  0  0
   78.5980   19.4250   -2.4630 O   0  0  0  0  0
   79.0650   18.1600    0.9470 C   0  0  0  0  0
   80.0960   17.2410    1.6200 C   0  0  0  0  0
   79.8220   16.9490    3.0980 C   0  0  0  0  0
   79.6970   18.2050    3.8150 N   0  0  0  0  0
   80.9640   16.1480    3.7310 C   0  0  0  0  0
   81.1340   14.7550    3.1280 C   0  0  0  0  0
   82.3920   14.1810    3.4920 O   0  0  0  0  0
   80.0690   13.7660    3.5820 C   0  0  0  0  0
   79.2220   13.4530    2.4790 O   0  0  0  0  0
   80.8470   12.5550    4.0780 C   0  0  0  0  0
   80.2670   11.3010    3.6980 O   0  0  0  0  0
   82.2050   12.7670    3.4350 C   0  0  0  0  0
   83.2780   12.0090    4.1110 N   0  0  0  0  0
   83.6090   12.0920    5.4130 C   0  0  0  0  0
   84.6330   11.2530    5.6870 N   0  0  0  0  0
   84.9620   10.6230    4.5530 C   0  0  0  0  0
   85.9510    9.6020    4.1590 C   0  0  0  0  0
   86.8160    9.0950    5.0680 N   0  0  0  0  0
   85.9680    9.2060    2.8660 N   0  0  0  0  0
   85.1120    9.7070    1.9500 C   0  0  0  0  0
   84.1830   10.6360    2.2520 N   0  0  0  0  0
   84.0670   11.1240    3.5150 C   0  0  0  0  0
   81.3506   18.0119   -0.4956 H   0  0  0  0  0
   80.7951   19.5633   -0.4696 H   0  0  0  0  0
   79.1950   17.1193   -0.9545 H   0  0  0  0  0
   78.0402   17.7832    1.1689 H   0  0  0  0  0
   79.1330   19.1926    1.3582 H   0  0  0  0  0
   81.1110   17.6909    1.5393 H   0  0  0  0  0
   80.1204   16.2823    1.0561 H   0  0  0  0  0
   78.8636   16.3873    3.1925 H   0  0  0  0  0
   80.5688   18.7272    3.8095 H   0  0  0  0  0
   79.4382   18.0488    4.7853 H   0  0  0  0  0
   80.8100   16.0537    4.8293 H   0  0  0  0  0
   81.9181   16.7085    3.6044 H   0  0  0  0  0
   81.1229   14.8226    2.0203 H   0  0  0  0  0
   79.4526   14.1764    4.4088 H   0  0  0  0  0
   78.9853   12.5365    2.5641 H   0  0  0  0  0
   80.9306   12.6122    5.1844 H   0  0  0  0  0
   80.8778   10.6190    3.9463 H   0  0  0  0  0
   82.1781   12.4439    2.3714 H   0  0  0  0  0
   83.1899   12.7120    6.2155 H   0  0  0  0  0
   85.1754    9.3409    0.9127 H   0  0  0  0  0
   87.4726    8.3944    4.7023 H   0  0  0  0  0
   86.7488    9.4451    6.0321 H   0  0  0  0  0
   80.8028   18.6910   -1.8625 H   0  0  0  0  0
  1  2  1  0  0  0
  1 28  1  0  0  0
  1 29  1  0  0  0
  2  3  1  0  0  0
  2  6  1  0  0  0
  2 30  1  0  0  0
  3  4  2  0  0  0
  3  5  2  0  0  0
  6  7  1  0  0  0
  6 31  1  0  0  0
  6 32  1  0  0  0
  7  8  1  0  0  0
  7 33  1  0  0  0
  7 34  1  0  0  0
  8  9  1  0  0  0
  8 10  1  0  0  0
  8 35  1  0  0  0
  9 36  1  0  0  0
  9 37  1  0  0  0
 10 11  1  0  0  0
 10 38  1  0  0  0
 10 39  1  0  0  0
 11 12  1  0  0  0
 11 13  1  0  0  0
 11 40  1  0  0  0
 12 17  1  0  0  0
 13 14  1  0  0  0
 13 15  1  0  0  0
 13 41  1  0  0  0
 14 42  1  0  0  0
 15 16  1  0  0  0
 15 17  1  0  0  0
 15 43  1  0  0  0
 16 44  1  0  0  0
 17 18  1  0  0  0
 17 45  1  0  0  0
 18 19  1  0  0  0
 18 27  1  0  0  0
 19 20  2  0  0  0
 19 46  1  0  0  0
 20 21  1  0  0  0
 21 22  1  0  0  0
 21 27  1  0  0  0
 22 23  1  0  0  0
 22 24  1  0  0  0
 23 48  1  0  0  0
 23 49  1  0  0  0
 24 25  2  0  0  0
 25 26  1  0  0  0
 25 47  1  0  0  0
 26 27  2  0  0  0
  1 50  1  0  0  0
M  END
$$$$
