2FX_1_A_201
  -ISIS-            3D

 20 21  0  0  0  0  0  0  0  0  1 V2000
  -43.3180  -31.3510    3.3940 O   0  0  0  0  0
  -43.5540  -31.8370    2.4060 C   0  0  0  0  0
  -44.0650  -32.9560    2.4020 O   0  0  0  0  0
  -43.8120  -30.0820    0.6990 C   0  0  0  0  0
  -43.1740  -28.8550    0.5520 C   0  0  0  0  0
  -44.2160  -27.8770    0.2710 C   0  0  0  0  0
  -43.9540  -26.5350    0.0150 C   0  0  0  0  0
  -45.0310  -25.7360   -0.2490 C   0  0  0  0  0
  -46.2890  -26.2770   -0.3510 C   0  0  0  0  0
  -46.5850  -27.5740   -0.0610 C   0  0  0  0  0
  -45.5300  -28.3600    0.1910 C   0  0  0  0  0
  -45.4960  -30.0200    0.5360 S   0  0  0  0  0
  -43.2040  -31.3760    1.0370 C   0  0  0  0  0
  -42.0973  -28.6517    0.6316 H   0  0  0  0  0
  -42.9289  -26.1312    0.0422 H   0  0  0  0  0
  -44.8817  -24.6565   -0.4229 H   0  0  0  0  0
  -47.1197  -25.6074   -0.6365 H   0  0  0  0  0
  -47.6172  -27.9589   -0.0737 H   0  0  0  0  0
  -43.4960  -32.1253    0.2654 H   0  0  0  0  0
  -42.0961  -31.2887    0.9585 H   0  0  0  0  0
  1  2  2  0  0  0
  2  3  2  0  0  0
  2 13  1  0  0  0
  4  5  2  0  0  0
  4 12  1  0  0  0
  4 13  1  0  0  0
  5  6  1  0  0  0
  5 14  1  0  0  0
  6  7  2  0  0  0
  6 11  1  0  0  0
  7  8  1  0  0  0
  7 15  1  0  0  0
  8  9  2  0  0  0
  8 16  1  0  0  0
  9 10  1  0  0  0
  9 17  1  0  0  0
 10 11  1  0  0  0
 10 18  1  0  0  0
 11 12  1  0  0  0
 13 19  1  0  0  0
 13 20  1  0  0  0
M  END
$$$$
