A82_2_A_401
  -ISIS-            3D

 53 56  0  0  0  0  0  0  0  0  1 V2000
  -21.7770  -26.0440  -17.7490 C   0  0  0  0  0
  -21.5280  -25.7750  -19.0990 C   0  0  0  0  0
  -22.0150  -24.6850  -19.6740 N   0  0  0  0  0
  -22.7680  -23.7990  -18.9640 C   0  0  0  0  0
  -23.3210  -22.5570  -19.6460 N   0  0  0  0  0
  -23.0600  -22.2930  -21.0210 C   0  0  0  0  0
  -22.2550  -23.2270  -21.7860 C   0  0  0  0  0
  -21.7230  -24.4350  -21.1260 C   0  0  0  0  0
  -21.0640  -25.2130  -21.7410 O   0  0  0  0  0
  -23.6290  -21.0850  -21.5940 N   0  0  0  0  0
  -23.4780  -20.6400  -22.9590 C   0  0  0  0  0
  -24.7930  -20.1810  -23.5950 C   0  0  0  0  0
  -25.4980  -19.2590  -22.7980 O   0  0  0  0  0
  -25.7280  -19.7680  -21.5060 C   0  0  0  0  0
  -24.4210  -20.1620  -20.8190 C   0  0  0  0  0
  -23.0580  -23.9990  -17.6190 C   0  0  0  0  0
  -22.5570  -25.1400  -16.9800 C   0  0  0  0  0
  -23.9020  -22.9820  -16.8520 C   0  0  0  0  0
  -25.3350  -23.5010  -16.7110 C   0  0  0  0  0
  -21.2050  -27.3020  -17.1000 C   0  0  0  0  0
  -23.3370  -22.7700  -15.5260 N   0  0  0  0  0
  -22.1550  -21.9470  -15.3330 C   0  0  0  0  0
  -20.5130  -20.9900  -13.8610 C   0  0  0  0  0
  -21.6390  -21.7740  -14.0580 C   0  0  0  0  0
  -19.8990  -20.3770  -14.9390 C   0  0  0  0  0
  -21.5370  -21.3310  -16.4100 C   0  0  0  0  0
  -20.4110  -20.5460  -16.2150 C   0  0  0  0  0
  -22.3090  -22.4440  -12.8610 C   0  0  0  0  0
  -23.2520  -23.2590  -13.0450 O   0  0  0  0  0
  -21.9190  -22.1770  -11.6920 O   0  0  0  0  0
  -20.9252  -26.4552  -19.7182 H   0  0  0  0  0
  -22.0115  -23.0896  -22.8485 H   0  0  0  0  0
  -22.9707  -21.4355  -23.5257 H   0  0  0  0  0
  -22.8567  -19.7371  -22.7924 H   0  0  0  0  0
  -25.4386  -21.0617  -23.8022 H   0  0  0  0  0
  -24.5839  -19.7097  -24.5789 H   0  0  0  0  0
  -26.4155  -20.6394  -21.5586 H   0  0  0  0  0
  -26.2466  -18.9908  -20.9055 H   0  0  0  0  0
  -23.7578  -19.2738  -20.8284 H   0  0  0  0  0
  -24.5659  -20.6117  -19.8225 H   0  0  0  0  0
  -22.7593  -25.3316  -15.9145 H   0  0  0  0  0
  -23.9611  -22.0156  -17.4023 H   0  0  0  0  0
  -25.9808  -22.7789  -16.1623 H   0  0  0  0  0
  -25.3820  -24.4696  -16.1645 H   0  0  0  0  0
  -25.8064  -23.6651  -17.7062 H   0  0  0  0  0
  -21.4843  -27.3821  -16.0266 H   0  0  0  0  0
  -20.0939  -27.3078  -17.1575 H   0  0  0  0  0
  -21.5780  -28.2169  -17.6115 H   0  0  0  0  0
  -23.8564  -23.2089  -14.7660 H   0  0  0  0  0
  -20.0951  -20.8462  -12.8506 H   0  0  0  0  0
  -19.0024  -19.7534  -14.7833 H   0  0  0  0  0
  -21.9141  -21.4450  -17.4366 H   0  0  0  0  0
  -19.9229  -20.0576  -17.0754 H   0  0  0  0  0
  1  2  2  0  0  0
  1 17  1  0  0  0
  1 20  1  0  0  0
  2  3  1  0  0  0
  2 31  1  0  0  0
  3  4  2  0  0  0
  3  8  1  0  0  0
  4  5  1  0  0  0
  4 16  1  0  0  0
  5  6  1  0  0  0
  6  7  1  0  0  0
  6 10  1  0  0  0
  7  8  1  0  0  0
  7 32  1  0  0  0
  8  9  2  0  0  0
 10 11  1  0  0  0
 10 15  1  0  0  0
 11 12  1  0  0  0
 11 33  1  0  0  0
 11 34  1  0  0  0
 12 13  1  0  0  0
 12 35  1  0  0  0
 12 36  1  0  0  0
 13 14  1  0  0  0
 14 15  1  0  0  0
 14 37  1  0  0  0
 14 38  1  0  0  0
 15 39  1  0  0  0
 15 40  1  0  0  0
 16 17  2  0  0  0
 16 18  1  0  0  0
 17 41  1  0  0  0
 18 19  1  0  0  0
 18 21  1  0  0  0
 18 42  1  0  0  0
 19 43  1  0  0  0
 19 44  1  0  0  0
 19 45  1  0  0  0
 20 46  1  0  0  0
 20 47  1  0  0  0
 20 48  1  0  0  0
 21 22  1  0  0  0
 21 49  1  0  0  0
 22 24  2  0  0  0
 22 26  1  0  0  0
 23 24  1  0  0  0
 23 25  2  0  0  0
 23 50  1  0  0  0
 24 28  1  0  0  0
 25 27  1  0  0  0
 25 51  1  0  0  0
 26 27  2  0  0  0
 26 52  1  0  0  0
 27 53  1  0  0  0
 28 29  2  0  0  0
 28 30  2  0  0  0
M  END
$$$$
