DMS_1_A_406
  -ISIS-            3D

 10  9  0  0  0  0  0  0  0  0  1 V2000
    6.2290    0.4080   18.1460 S   0  0  0  0  0
    7.5160    0.8210   17.5090 O   0  0  0  0  0
    5.1730    1.8670   18.3580 C   0  0  0  0  0
    6.5300   -0.0240   19.8820 C   0  0  0  0  0
    4.2454    1.5790   18.8936 H   0  0  0  0  0
    4.9076    2.2741   17.3610 H   0  0  0  0  0
    5.7136    2.6418   18.9393 H   0  0  0  0  0
    5.5667   -0.2626   20.3773 H   0  0  0  0  0
    7.0161    0.8264   20.4027 H   0  0  0  0  0
    7.1941   -0.9112   19.9280 H   0  0  0  0  0
  1  2  2  0  0  0
  1  3  1  0  0  0
  1  4  1  0  0  0
  3  5  1  0  0  0
  3  6  1  0  0  0
  3  7  1  0  0  0
  4  8  1  0  0  0
  4  9  1  0  0  0
  4 10  1  0  0  0
M  END
$$$$
