05R_1_A_201
  -ISIS-            3D

 17 17  0  0  0  0  0  0  0  0  1 V2000
  -43.6800  -31.8130    2.3200 C   0  0  0  0  0
  -44.2660  -32.8960    2.1960 O   0  0  0  0  0
  -43.2010  -31.1910    0.9810 C   0  0  0  0  0
  -43.7830  -29.8730    0.6970 C   0  0  0  0  0
  -43.0300  -28.6790    0.8460 C   0  0  0  0  0
  -43.7110  -27.5220    0.5700 C   0  0  0  0  0
  -44.9670  -27.4730    0.3260 C   0  0  0  0  0
  -45.7130  -25.9480    0.0410 Cl  0  0  0  0  0
  -45.6920  -28.5640    0.2370 C   0  0  0  0  0
  -47.3100  -28.5390   -0.1450 Cl  0  0  0  0  0
  -45.1230  -29.7590    0.4560 C   0  0  0  0  0
  -43.3640  -31.2330    3.3800 O   0  0  0  0  0
  -43.4366  -31.8782    0.1360 H   0  0  0  0  0
  -42.0896  -31.1188    1.0016 H   0  0  0  0  0
  -41.9646  -28.6807    1.1274 H   0  0  0  0  0
  -43.1293  -26.5832    0.5998 H   0  0  0  0  0
  -45.7396  -30.6745    0.4170 H   0  0  0  0  0
  1  2  2  0  0  0
  1  3  1  0  0  0
  1 12  2  0  0  0
  3  4  1  0  0  0
  3 13  1  0  0  0
  3 14  1  0  0  0
  4  5  2  0  0  0
  4 11  1  0  0  0
  5  6  1  0  0  0
  5 15  1  0  0  0
  6  7  2  0  0  0
  6 16  1  0  0  0
  7  8  1  0  0  0
  7  9  1  0  0  0
  9 10  1  0  0  0
  9 11  2  0  0  0
 11 17  1  0  0  0
M  END
$$$$
