DMS_2_A_403
  -ISIS-            3D

 10  9  0  0  0  0  0  0  0  0  1 V2000
   -2.4670  -18.8090   -8.1490 S   0  0  0  0  0
   -3.7620  -18.6930   -8.9550 O   0  0  0  0  0
   -1.1840  -18.1420   -9.1810 C   0  0  0  0  0
   -1.9990  -20.5020   -8.3630 C   0  0  0  0  0
   -0.1902  -18.3671   -8.7426 H   0  0  0  0  0
   -1.3036  -17.0410   -9.2445 H   0  0  0  0  0
   -1.2438  -18.5684  -10.2034 H   0  0  0  0  0
   -0.9789  -20.6670   -7.9599 H   0  0  0  0  0
   -2.0222  -20.7827   -9.4360 H   0  0  0  0  0
   -2.7080  -21.1500   -7.8080 H   0  0  0  0  0
  1  2  2  0  0  0
  1  3  1  0  0  0
  1  4  1  0  0  0
  3  5  1  0  0  0
  3  6  1  0  0  0
  3  7  1  0  0  0
  4  8  1  0  0  0
  4  9  1  0  0  0
  4 10  1  0  0  0
M  END
$$$$
