DMS_2_A_402
  -ISIS-            3D

 10  9  0  0  0  0  0  0  0  0  1 V2000
   -6.1450   -1.0420    6.1580 S   0  0  0  0  0
   -6.9430   -0.7240    7.3890 O   0  0  0  0  0
   -7.2800   -0.9180    4.7990 C   0  0  0  0  0
   -5.9170   -2.7990    6.1440 C   0  0  0  0  0
   -6.7923   -1.2732    3.8681 H   0  0  0  0  0
   -7.5775    0.1422    4.6651 H   0  0  0  0  0
   -8.1867   -1.5255    4.9960 H   0  0  0  0  0
   -5.4569   -3.1112    5.1840 H   0  0  0  0  0
   -6.8896   -3.3162    6.2729 H   0  0  0  0  0
   -5.2416   -3.0879    6.9752 H   0  0  0  0  0
  1  2  2  0  0  0
  1  3  1  0  0  0
  1  4  1  0  0  0
  3  5  1  0  0  0
  3  6  1  0  0  0
  3  7  1  0  0  0
  4  8  1  0  0  0
  4  9  1  0  0  0
  4 10  1  0  0  0
M  END
$$$$
