DMS_2_A_403
  -ISIS-            3D

 10  9  0  0  0  0  0  0  0  0  1 V2000
   -2.4480  -18.7150   -8.0690 S   0  0  0  0  0
   -3.6250  -18.9570   -9.0350 O   0  0  0  0  0
   -1.0710  -18.3440   -9.1520 C   0  0  0  0  0
   -1.9180  -20.3130   -7.6130 C   0  0  0  0  0
   -0.1275  -18.3278   -8.5691 H   0  0  0  0  0
   -1.2259  -17.3453   -9.6094 H   0  0  0  0  0
   -0.9958  -19.1021   -9.9586 H   0  0  0  0  0
   -0.9556  -20.2520   -7.0650 H   0  0  0  0  0
   -1.7906  -20.9556   -8.5085 H   0  0  0  0  0
   -2.6749  -20.7757   -6.9471 H   0  0  0  0  0
  1  2  2  0  0  0
  1  3  1  0  0  0
  1  4  1  0  0  0
  3  5  1  0  0  0
  3  6  1  0  0  0
  3  7  1  0  0  0
  4  8  1  0  0  0
  4  9  1  0  0  0
  4 10  1  0  0  0
M  END
$$$$
