DMS_1_A_403
  -ISIS-            3D

 10  9  0  0  0  0  0  0  0  0  1 V2000
    7.8590  -22.2690   28.1090 S   0  0  0  0  0
    7.7400  -23.7550   27.9770 O   0  0  0  0  0
    6.3510  -21.6330   28.8930 C   0  0  0  0  0
    9.0840  -21.8400   29.3700 C   0  0  0  0  0
    6.4464  -20.5388   29.0476 H   0  0  0  0  0
    6.1943  -22.1350   29.8697 H   0  0  0  0  0
    5.4828  -21.8343   28.2327 H   0  0  0  0  0
    9.1076  -20.7394   29.5057 H   0  0  0  0  0
   10.0843  -22.1890   29.0416 H   0  0  0  0  0
    8.8219  -22.3283   30.3309 H   0  0  0  0  0
  1  2  2  0  0  0
  1  3  1  0  0  0
  1  4  1  0  0  0
  3  5  1  0  0  0
  3  6  1  0  0  0
  3  7  1  0  0  0
  4  8  1  0  0  0
  4  9  1  0  0  0
  4 10  1  0  0  0
M  END
$$$$
