EDO_1_A_206
  -ISIS-            3D

 10  9  0  0  0  0  0  0  0  0  1 V2000
  -20.6740   -4.3910  -16.2580 C   0  0  0  0  0
  -19.3820   -4.8660  -15.7440 O   0  0  0  0  0
  -20.6780   -3.9900  -17.6970 C   0  0  0  0  0
  -21.9850   -3.9600  -18.2800 O   0  0  0  0  0
  -21.0027   -3.5359  -15.6307 H   0  0  0  0  0
  -21.4247   -5.1941  -16.0936 H   0  0  0  0  0
  -19.2492   -5.7501  -16.0596 H   0  0  0  0  0
  -20.0747   -4.7180  -18.2793 H   0  0  0  0  0
  -20.1826   -3.0049  -17.8305 H   0  0  0  0  0
  -22.4272   -3.1765  -17.9807 H   0  0  0  0  0
  1  2  1  0  0  0
  1  3  1  0  0  0
  1  5  1  0  0  0
  1  6  1  0  0  0
  2  7  1  0  0  0
  3  4  1  0  0  0
  3  8  1  0  0  0
  3  9  1  0  0  0
  4 10  1  0  0  0
M  END
$$$$
