EDO_3_B_503
  -ISIS-            3D

 10  9  0  0  0  0  0  0  0  0  1 V2000
  -89.8250   19.6110   25.2070 C   0  0  0  0  0
  -89.3530   19.6070   26.5590 O   0  0  0  0  0
  -88.7040   20.0590   24.2780 C   0  0  0  0  0
  -88.2920   21.3820   24.6400 O   0  0  0  0  0
  -90.6955   20.2947   25.1139 H   0  0  0  0  0
  -90.1694   18.5915   24.9336 H   0  0  0  0  0
  -90.1010   19.5236   27.1356 H   0  0  0  0  0
  -89.0497   20.0552   23.2230 H   0  0  0  0  0
  -87.8425   19.3617   24.3520 H   0  0  0  0  0
  -87.4741   21.5706   24.1987 H   0  0  0  0  0
  1  2  1  0  0  0
  1  3  1  0  0  0
  1  5  1  0  0  0
  1  6  1  0  0  0
  2  7  1  0  0  0
  3  4  1  0  0  0
  3  8  1  0  0  0
  3  9  1  0  0  0
  4 10  1  0  0  0
M  END
$$$$
