DMS_1_A_408
  -ISIS-            3D

 10  9  0  0  0  0  0  0  0  0  1 V2000
    6.5240   30.3120   -0.8390 S   0  0  0  0  0
    6.5960   28.9330   -1.4090 O   0  0  0  0  0
    7.2680   31.5110   -1.9770 C   0  0  0  0  0
    4.8080   30.8910   -0.8050 C   0  0  0  0  0
    7.1690   32.5325   -1.5564 H   0  0  0  0  0
    6.7574   31.4618   -2.9606 H   0  0  0  0  0
    8.3432   31.2721   -2.1083 H   0  0  0  0  0
    4.7744   31.9293   -0.4163 H   0  0  0  0  0
    4.2127   30.2322   -0.1402 H   0  0  0  0  0
    4.3817   30.8625   -1.8287 H   0  0  0  0  0
  1  2  2  0  0  0
  1  3  1  0  0  0
  1  4  1  0  0  0
  3  5  1  0  0  0
  3  6  1  0  0  0
  3  7  1  0  0  0
  4  8  1  0  0  0
  4  9  1  0  0  0
  4 10  1  0  0  0
M  END
$$$$
