EDO_1_A_404
  -ISIS-            3D

 10  9  0  0  0  0  0  0  0  0  1 V2000
  -74.2820   26.4260   -0.9770 C   0  0  0  0  0
  -74.7230   25.4360   -0.0390 O   0  0  0  0  0
  -73.2400   27.3340   -0.3280 C   0  0  0  0  0
  -73.1690   28.5660   -1.0590 O   0  0  0  0  0
  -75.1596   27.0260   -1.2998 H   0  0  0  0  0
  -73.8630   25.9352   -1.8804 H   0  0  0  0  0
  -75.3850   24.9044   -0.4608 H   0  0  0  0  0
  -72.2456   26.8409   -0.3091 H   0  0  0  0  0
  -73.5272   27.5556    0.7219 H   0  0  0  0  0
  -72.5380   29.1277   -0.6287 H   0  0  0  0  0
  1  2  1  0  0  0
  1  3  1  0  0  0
  1  5  1  0  0  0
  1  6  1  0  0  0
  2  7  1  0  0  0
  3  4  1  0  0  0
  3  8  1  0  0  0
  3  9  1  0  0  0
  4 10  1  0  0  0
M  END
$$$$
