DMS_2_A_401
  -ISIS-            3D

 10  9  0  0  0  0  0  0  0  0  1 V2000
   -6.9100  -27.8590  -21.4590 S   0  0  0  0  0
   -6.0980  -26.9840  -20.5200 O   0  0  0  0  0
   -7.7620  -26.7710  -22.4800 C   0  0  0  0  0
   -5.7380  -28.4650  -22.6400 C   0  0  0  0  0
   -8.2567  -27.3278  -23.3018 H   0  0  0  0  0
   -7.0737  -26.0166  -22.9137 H   0  0  0  0  0
   -8.5418  -26.2445  -21.8925 H   0  0  0  0  0
   -6.2669  -28.9937  -23.4592 H   0  0  0  0  0
   -5.0498  -29.1779  -22.1414 H   0  0  0  0  0
   -5.1448  -27.6285  -23.0635 H   0  0  0  0  0
  1  2  2  0  0  0
  1  3  1  0  0  0
  1  4  1  0  0  0
  3  5  1  0  0  0
  3  6  1  0  0  0
  3  7  1  0  0  0
  4  8  1  0  0  0
  4  9  1  0  0  0
  4 10  1  0  0  0
M  END
$$$$
