DMS_2_A_401
  -ISIS-            3D

 10  9  0  0  0  0  0  0  0  0  1 V2000
   -6.9990  -28.1370  -21.4680 S   0  0  0  0  0
   -7.7410  -27.1310  -22.3270 O   0  0  0  0  0
   -5.4430  -28.6420  -22.5300 C   0  0  0  0  0
   -6.0530  -27.1420  -20.1010 C   0  0  0  0  0
   -4.7746  -29.2722  -21.9083 H   0  0  0  0  0
   -4.9115  -27.7242  -22.8552 H   0  0  0  0  0
   -5.7886  -29.2149  -23.4148 H   0  0  0  0  0
   -5.3713  -27.8316  -19.5623 H   0  0  0  0  0
   -6.7946  -26.7156  -19.3948 H   0  0  0  0  0
   -5.4728  -26.3266  -20.5796 H   0  0  0  0  0
  1  2  2  0  0  0
  1  3  1  0  0  0
  1  4  1  0  0  0
  3  5  1  0  0  0
  3  6  1  0  0  0
  3  7  1  0  0  0
  4  8  1  0  0  0
  4  9  1  0  0  0
  4 10  1  0  0  0
M  END
$$$$
