DMS_1_A_402
  -ISIS-            3D

 10  9  0  0  0  0  0  0  0  0  1 V2000
    2.3490  -18.9060    8.1000 S   0  0  0  0  0
    2.0230  -20.4000    8.0710 O   0  0  0  0  0
    1.1360  -18.1030    9.3980 C   0  0  0  0  0
    3.9930  -18.7640    9.1340 C   0  0  0  0  0
    1.4422  -17.0508    9.5698 H   0  0  0  0  0
    1.1880  -18.6772   10.3457 H   0  0  0  0  0
    0.1056  -18.1365    8.9885 H   0  0  0  0  0
    4.2071  -17.6915    9.3195 H   0  0  0  0  0
    4.8194  -19.2203    8.5515 H   0  0  0  0  0
    3.8637  -19.3008   10.0961 H   0  0  0  0  0
  1  2  2  0  0  0
  1  3  1  0  0  0
  1  4  1  0  0  0
  3  5  1  0  0  0
  3  6  1  0  0  0
  3  7  1  0  0  0
  4  8  1  0  0  0
  4  9  1  0  0  0
  4 10  1  0  0  0
M  END
$$$$
