NHE_1_A_403
  -ISIS-            3D

 30 30  0  0  0  0  0  0  0  0  1 V2000
   31.0750  -25.5440   24.7170 C   0  0  0  0  0
   30.9260  -26.1400   23.3170 C   0  0  0  0  0
   30.6060  -27.6400   23.2110 C   0  0  0  0  0
   29.8760  -28.2730   24.4070 C   0  0  0  0  0
   29.9330  -28.0270   21.9710 N   0  0  0  0  0
   30.0010  -27.2130   20.7500 C   0  0  0  0  0
   29.7900  -27.9800   19.4400 C   0  0  0  0  0
   30.4950  -27.3290   18.0970 S   0  0  0  0  0
   31.6890  -26.6140   18.3130 O   0  0  0  0  0
   30.3010  -28.1260   16.9520 O   0  0  0  0  0
   29.4840  -26.1030   17.8390 O   0  0  0  0  0
   29.8370  -27.4760   25.7080 C   0  0  0  0  0
   31.0340  -26.5570   25.8580 C   0  0  0  0  0
   30.2608  -24.7986   24.8795 H   0  0  0  0  0
   32.0257  -24.9645   24.7769 H   0  0  0  0  0
   31.8465  -25.9169   22.7288 H   0  0  0  0  0
   30.1081  -25.5711   22.8176 H   0  0  0  0  0
   31.6142  -28.1281   23.1902 H   0  0  0  0  0
   30.3340  -29.2695   24.6111 H   0  0  0  0  0
   28.8222  -28.4925   24.1156 H   0  0  0  0  0
   30.1155  -29.0068   21.7689 H   0  0  0  0  0
   31.0044  -26.7353   20.7169 H   0  0  0  0  0
   29.2599  -26.3867   20.8195 H   0  0  0  0  0
   28.7106  -28.1316   19.2304 H   0  0  0  0  0
   30.2366  -28.9935   19.5251 H   0  0  0  0  0
   29.8153  -25.4341   16.7684 H   0  0  0  0  0
   29.7736  -28.1708   26.5773 H   0  0  0  0  0
   28.9073  -26.8604   25.7346 H   0  0  0  0  0
   30.9927  -26.0262   26.8373 H   0  0  0  0  0
   31.9711  -27.1605   25.8603 H   0  0  0  0  0
  1  2  1  0  0  0
  1 13  1  0  0  0
  1 14  1  0  0  0
  1 15  1  0  0  0
  2  3  1  0  0  0
  2 16  1  0  0  0
  2 17  1  0  0  0
  3  4  1  0  0  0
  3  5  1  0  0  0
  3 18  1  0  0  0
  4 12  1  0  0  0
  4 19  1  0  0  0
  4 20  1  0  0  0
  5  6  1  0  0  0
  5 21  1  0  0  0
  6  7  1  0  0  0
  6 22  1  0  0  0
  6 23  1  0  0  0
  7  8  1  0  0  0
  7 24  1  0  0  0
  7 25  1  0  0  0
  8  9  2  0  0  0
  8 10  2  0  0  0
  8 11  1  0  0  0
 11 26  1  0  0  0
 12 13  1  0  0  0
 12 27  1  0  0  0
 12 28  1  0  0  0
 13 29  1  0  0  0
 13 30  1  0  0  0
M  END
$$$$
