EDO_1_A_202
  -ISIS-            3D

 10  9  0  0  0  0  0  0  0  0  1 V2000
   45.1350   64.0450    9.3200 C   0  0  0  0  0
   43.8940   63.3270    9.2780 O   0  0  0  0  0
   45.3960   64.8530    8.1030 C   0  0  0  0  0
   45.8300   64.0540    7.0370 O   0  0  0  0  0
   45.9705   63.3324    9.4898 H   0  0  0  0  0
   45.1117   64.7147   10.2069 H   0  0  0  0  0
   43.8826   62.7081    9.9965 H   0  0  0  0  0
   46.1804   65.6108    8.3170 H   0  0  0  0  0
   44.4818   65.4123    7.8106 H   0  0  0  0  0
   45.8586   64.5842    6.2515 H   0  0  0  0  0
  1  2  1  0  0  0
  1  3  1  0  0  0
  1  5  1  0  0  0
  1  6  1  0  0  0
  2  7  1  0  0  0
  3  4  1  0  0  0
  3  8  1  0  0  0
  3  9  1  0  0  0
  4 10  1  0  0  0
M  END
$$$$
