EDO_1_A_9101
  -ISIS-            3D

 10  9  0  0  0  0  0  0  0  0  1 V2000
   -4.1600    0.8150   13.8970 C   0  0  0  0  0
   -3.4810    2.0700   14.0000 O   0  0  0  0  0
   -4.9250    0.5800   15.2280 C   0  0  0  0  0
   -5.9320    1.5690   15.3680 O   0  0  0  0  0
   -3.4217    0.0046   13.7224 H   0  0  0  0  0
   -4.8483    0.8332   13.0277 H   0  0  0  0  0
   -2.9064    2.0486   14.7531 H   0  0  0  0  0
   -4.2410    0.6215   16.1002 H   0  0  0  0  0
   -5.3949   -0.4259   15.2271 H   0  0  0  0  0
   -6.4433    1.6064   14.5709 H   0  0  0  0  0
  1  2  1  0  0  0
  1  3  1  0  0  0
  1  5  1  0  0  0
  1  6  1  0  0  0
  2  7  1  0  0  0
  3  4  1  0  0  0
  3  8  1  0  0  0
  3  9  1  0  0  0
  4 10  1  0  0  0
M  END
$$$$
