DMS_1_A_405
  -ISIS-            3D

 10  9  0  0  0  0  0  0  0  0  1 V2000
    7.8100  -28.0960   21.2570 S   0  0  0  0  0
    8.5400  -27.1380   22.1130 O   0  0  0  0  0
    6.9000  -27.2030   20.0910 C   0  0  0  0  0
    6.5070  -28.8410   22.2270 C   0  0  0  0  0
    6.2805  -27.8947   19.4840 H   0  0  0  0  0
    7.5920  -26.6595   19.4157 H   0  0  0  0  0
    6.2393  -26.4687   20.5955 H   0  0  0  0  0
    5.8961  -29.5070   21.5838 H   0  0  0  0  0
    5.8600  -28.0537   22.6648 H   0  0  0  0  0
    6.9556  -29.4407   23.0452 H   0  0  0  0  0
  1  2  2  0  0  0
  1  3  1  0  0  0
  1  4  1  0  0  0
  3  5  1  0  0  0
  3  6  1  0  0  0
  3  7  1  0  0  0
  4  8  1  0  0  0
  4  9  1  0  0  0
  4 10  1  0  0  0
M  END
$$$$
