DMS_1_A_402
  -ISIS-            3D

 10  9  0  0  0  0  0  0  0  0  1 V2000
    5.4650   -1.2120   -6.1800 S   0  0  0  0  0
    6.2240   -0.5220   -7.1440 O   0  0  0  0  0
    6.4300   -1.4430   -4.7640 C   0  0  0  0  0
    5.2590   -2.8250   -6.6900 C   0  0  0  0  0
    5.8729   -2.0459   -4.0181 H   0  0  0  0  0
    6.6709   -0.4582   -4.3137 H   0  0  0  0  0
    7.3776   -1.9613   -5.0182 H   0  0  0  0  0
    4.7222   -3.4061   -5.9127 H   0  0  0  0  0
    6.2409   -3.3028   -6.8869 H   0  0  0  0  0
    4.6589   -2.8484   -7.6227 H   0  0  0  0  0
  1  2  2  0  0  0
  1  3  1  0  0  0
  1  4  1  0  0  0
  3  5  1  0  0  0
  3  6  1  0  0  0
  3  7  1  0  0  0
  4  8  1  0  0  0
  4  9  1  0  0  0
  4 10  1  0  0  0
M  END
$$$$
