DMS_1_B_401
  -ISIS-            3D

 10  9  0  0  0  0  0  0  0  0  1 V2000
   -7.1240    2.7300   12.1650 S   0  0  0  0  0
   -7.9890    1.9950   11.1930 O   0  0  0  0  0
   -7.8180    4.3760   12.4810 C   0  0  0  0  0
   -5.5590    3.1770   11.3640 C   0  0  0  0  0
   -7.1412    4.9408   13.1541 H   0  0  0  0  0
   -8.8095    4.2677   12.9663 H   0  0  0  0  0
   -7.9348    4.9247   11.5240 H   0  0  0  0  0
   -4.9406    3.7736   12.0653 H   0  0  0  0  0
   -5.7612    3.7700   10.4486 H   0  0  0  0  0
   -5.0114    2.2522   11.0897 H   0  0  0  0  0
  1  2  2  0  0  0
  1  3  1  0  0  0
  1  4  1  0  0  0
  3  5  1  0  0  0
  3  6  1  0  0  0
  3  7  1  0  0  0
  4  8  1  0  0  0
  4  9  1  0  0  0
  4 10  1  0  0  0
M  END
$$$$
