DMS_2_A_408
  -ISIS-            3D

 10  9  0  0  0  0  0  0  0  0  1 V2000
  -24.7260  -12.2530  -35.7960 S   0  0  0  0  0
  -24.6660  -10.7620  -35.6670 O   0  0  0  0  0
  -25.6710  -12.7090  -37.2750 C   0  0  0  0  0
  -25.8420  -12.9890  -34.5730 C   0  0  0  0  0
  -25.7520  -13.8132  -37.3409 H   0  0  0  0  0
  -25.1442  -12.3295  -38.1744 H   0  0  0  0  0
  -26.6851  -12.2613  -37.2296 H   0  0  0  0  0
  -25.9099  -14.0834  -34.7398 H   0  0  0  0  0
  -26.8503  -12.5339  -34.6579 H   0  0  0  0  0
  -25.4413  -12.8009  -33.5561 H   0  0  0  0  0
  1  2  2  0  0  0
  1  3  1  0  0  0
  1  4  1  0  0  0
  3  5  1  0  0  0
  3  6  1  0  0  0
  3  7  1  0  0  0
  4  8  1  0  0  0
  4  9  1  0  0  0
  4 10  1  0  0  0
M  END
$$$$
