DMS_2_A_501
  -ISIS-            3D

 10  9  0  0  0  0  0  0  0  0  1 V2000
   -5.9750    0.4920  -18.2880 S   0  0  0  0  0
   -7.0660    0.9470  -17.3760 O   0  0  0  0  0
   -6.6950   -0.2050  -19.8060 C   0  0  0  0  0
   -5.1850    1.9350  -19.0610 C   0  0  0  0  0
   -5.8849   -0.4665  -20.5170 H   0  0  0  0  0
   -7.3806    0.5317  -20.2733 H   0  0  0  0  0
   -7.2638   -1.1222  -19.5499 H   0  0  0  0  0
   -4.4301    1.5960  -19.7994 H   0  0  0  0  0
   -4.6815    2.5366  -18.2769 H   0  0  0  0  0
   -5.9494    2.5602  -19.5668 H   0  0  0  0  0
  1  2  2  0  0  0
  1  3  1  0  0  0
  1  4  1  0  0  0
  3  5  1  0  0  0
  3  6  1  0  0  0
  3  7  1  0  0  0
  4  8  1  0  0  0
  4  9  1  0  0  0
  4 10  1  0  0  0
M  END
$$$$
