EDO_1_A_317
  -ISIS-            3D

 10  9  0  0  0  0  0  0  0  0  1 V2000
    2.2050   -7.8040   11.2050 C   0  0  0  0  0
    1.0260   -8.3430   10.5850 O   0  0  0  0  0
    2.2420   -6.2960   11.0100 C   0  0  0  0  0
    1.0300   -5.7040   11.5120 O   0  0  0  0  0
    3.1066   -8.2761   10.7614 H   0  0  0  0  0
    2.1995   -8.0464   12.2891 H   0  0  0  0  0
    0.9143   -9.2360   10.8839 H   0  0  0  0  0
    2.3526   -6.0567    9.9308 H   0  0  0  0  0
    3.1143   -5.8580   11.5391 H   0  0  0  0  0
    0.9850   -4.8094   11.2008 H   0  0  0  0  0
  1  2  1  0  0  0
  1  3  1  0  0  0
  1  5  1  0  0  0
  1  6  1  0  0  0
  2  7  1  0  0  0
  3  4  1  0  0  0
  3  8  1  0  0  0
  3  9  1  0  0  0
  4 10  1  0  0  0
M  END
$$$$
