EDO_1_A_306
  -ISIS-            3D

 10  9  0  0  0  0  0  0  0  0  1 V2000
   18.9680  -18.8570    3.3090 C   0  0  0  0  0
   19.0710  -19.0180    4.7240 O   0  0  0  0  0
   17.5030  -18.7170    2.9320 C   0  0  0  0  0
   16.7680  -19.6170    3.7640 O   0  0  0  0  0
   19.4035  -19.7482    2.8084 H   0  0  0  0  0
   19.5485  -17.9699    2.9804 H   0  0  0  0  0
   19.9728  -19.2198    4.9385 H   0  0  0  0  0
   17.3361  -18.9532    1.8607 H   0  0  0  0  0
   17.1561  -17.6777    3.1147 H   0  0  0  0  0
   15.8422  -19.4498    3.6418 H   0  0  0  0  0
  1  2  1  0  0  0
  1  3  1  0  0  0
  1  5  1  0  0  0
  1  6  1  0  0  0
  2  7  1  0  0  0
  3  4  1  0  0  0
  3  8  1  0  0  0
  3  9  1  0  0  0
  4 10  1  0  0  0
M  END
$$$$
