EDO_1_M_210
  -ISIS-            3D

 10  9  0  0  0  0  0  0  0  0  1 V2000
   -9.4300   15.2360   46.8550 C   0  0  0  0  0
   -8.4880   14.3700   46.2030 O   0  0  0  0  0
   -8.6430   16.2700   47.6580 C   0  0  0  0  0
   -7.6680   16.9150   46.8110 O   0  0  0  0  0
  -10.0913   14.6363   47.5131 H   0  0  0  0  0
  -10.0686   15.7292   46.0926 H   0  0  0  0  0
   -7.8283   14.9362   45.8178 H   0  0  0  0  0
   -8.1233   15.7789   48.5081 H   0  0  0  0  0
   -9.3313   17.0307   48.0830 H   0  0  0  0  0
   -7.1977   17.5495   47.3349 H   0  0  0  0  0
  1  2  1  0  0  0
  1  3  1  0  0  0
  1  5  1  0  0  0
  1  6  1  0  0  0
  2  7  1  0  0  0
  3  4  1  0  0  0
  3  8  1  0  0  0
  3  9  1  0  0  0
  4 10  1  0  0  0
M  END
$$$$
