EDO_1_A_313
  -ISIS-            3D

 10  9  0  0  0  0  0  0  0  0  1 V2000
   20.9010   17.4380   25.7930 C   0  0  0  0  0
   21.5500   18.3690   24.8920 O   0  0  0  0  0
   21.8010   16.5490   26.6690 C   0  0  0  0  0
   21.0860   15.9880   27.8080 O   0  0  0  0  0
   20.2095   16.7963   25.2063 H   0  0  0  0  0
   20.2524   18.0407   26.4637 H   0  0  0  0  0
   22.0098   17.8688   24.2303 H   0  0  0  0  0
   22.6423   17.1566   27.0624 H   0  0  0  0  0
   22.2506   15.7327   26.0659 H   0  0  0  0  0
   20.5165   15.2995   27.4915 H   0  0  0  0  0
  1  2  1  0  0  0
  1  3  1  0  0  0
  1  5  1  0  0  0
  1  6  1  0  0  0
  2  7  1  0  0  0
  3  4  1  0  0  0
  3  8  1  0  0  0
  3  9  1  0  0  0
  4 10  1  0  0  0
M  END
$$$$
