EDO_1_M_206
  -ISIS-            3D

 10  9  0  0  0  0  0  0  0  0  1 V2000
   -1.8280   17.1910   23.6340 C   0  0  0  0  0
   -1.2770   17.0870   24.9700 O   0  0  0  0  0
   -1.5350   18.5580   23.0220 C   0  0  0  0  0
   -0.1360   18.7280   22.7580 O   0  0  0  0  0
   -2.9266   17.0348   23.6870 H   0  0  0  0  0
   -1.4142   16.3816   22.9964 H   0  0  0  0  0
   -1.4735   16.2231   25.3076 H   0  0  0  0  0
   -1.8722   19.3650   23.7047 H   0  0  0  0  0
   -2.0999   18.6823   22.0738 H   0  0  0  0  0
    0.1370   18.0742   22.1277 H   0  0  0  0  0
  1  2  1  0  0  0
  1  3  1  0  0  0
  1  5  1  0  0  0
  1  6  1  0  0  0
  2  7  1  0  0  0
  3  4  1  0  0  0
  3  8  1  0  0  0
  3  9  1  0  0  0
  4 10  1  0  0  0
M  END
$$$$
