PF0_1_A_201
  -ISIS-            3D

 18 18  0  0  0  0  0  0  0  0  1 V2000
  -44.5940  -33.0880   -0.9040 C   0  0  0  0  0
  -45.5840  -33.0680    0.0540 C   0  0  0  0  0
  -45.3710  -32.3860    1.2580 C   0  0  0  0  0
  -44.1930  -31.7330    1.5260 C   0  0  0  0  0
  -43.2070  -31.7790    0.5610 C   0  0  0  0  0
  -43.4070  -32.4610   -0.6170 C   0  0  0  0  0
  -41.8620  -31.0830    0.7860 C   0  0  0  0  0
  -43.9920  -30.9550    2.8520 C   0  0  0  0  0
  -43.1630  -31.2570    3.7060 O   0  0  0  0  0
  -42.3880  -32.4720   -1.5600 O   0  0  0  0  0
  -44.6650  -29.9410    3.0950 O   0  0  0  0  0
  -44.7628  -33.6074   -1.8621 H   0  0  0  0  0
  -46.5444  -33.5792   -0.1287 H   0  0  0  0  0
  -46.1807  -32.3729    2.0081 H   0  0  0  0  0
  -41.3859  -30.7601   -0.1652 H   0  0  0  0  0
  -41.1489  -31.7604    1.3064 H   0  0  0  0  0
  -41.9685  -30.1655    1.4046 H   0  0  0  0  0
  -42.6085  -32.9530   -2.3448 H   0  0  0  0  0
  1  2  2  0  0  0
  1  6  1  0  0  0
  1 12  1  0  0  0
  2  3  1  0  0  0
  2 13  1  0  0  0
  3  4  2  0  0  0
  3 14  1  0  0  0
  4  5  1  0  0  0
  4  8  1  0  0  0
  5  6  2  0  0  0
  5  7  1  0  0  0
  6 10  1  0  0  0
  7 15  1  0  0  0
  7 16  1  0  0  0
  7 17  1  0  0  0
  8  9  2  0  0  0
  8 11  2  0  0  0
 10 18  1  0  0  0
M  END
$$$$
