EDO_1_A_409
  -ISIS-            3D

 10  9  0  0  0  0  0  0  0  0  1 V2000
   34.3550  -35.0870   -2.9810 C   0  0  0  0  0
   34.8190  -34.1860   -1.9610 O   0  0  0  0  0
   35.5030  -35.3730   -3.9460 C   0  0  0  0  0
   35.5840  -36.7670   -4.2880 O   0  0  0  0  0
   33.4750  -34.6622   -3.5074 H   0  0  0  0  0
   34.0210  -36.0224   -2.4862 H   0  0  0  0  0
   34.8304  -33.3072   -2.3172 H   0  0  0  0  0
   36.4712  -35.0886   -3.4834 H   0  0  0  0  0
   35.4051  -34.7616   -4.8677 H   0  0  0  0  0
   34.8688  -36.9742   -4.8752 H   0  0  0  0  0
  1  2  1  0  0  0
  1  3  1  0  0  0
  1  5  1  0  0  0
  1  6  1  0  0  0
  2  7  1  0  0  0
  3  4  1  0  0  0
  3  8  1  0  0  0
  3  9  1  0  0  0
  4 10  1  0  0  0
M  END
$$$$
