EDO_1_A_405
  -ISIS-            3D

 10  9  0  0  0  0  0  0  0  0  1 V2000
   56.3170  -34.9560   14.3330 C   0  0  0  0  0
   56.7550  -36.1140   13.6010 O   0  0  0  0  0
   56.8470  -33.7060   13.6240 C   0  0  0  0  0
   58.2580  -33.8620   13.3540 O   0  0  0  0  0
   56.7081  -35.0047   15.3714 H   0  0  0  0  0
   55.2084  -34.9349   14.3869 H   0  0  0  0  0
   56.4226  -36.8841   14.0424 H   0  0  0  0  0
   56.6895  -32.8016   14.2465 H   0  0  0  0  0
   56.3100  -33.5464   12.6653 H   0  0  0  0  0
   58.3671  -34.7497   13.0314 H   0  0  0  0  0
  1  2  1  0  0  0
  1  3  1  0  0  0
  1  5  1  0  0  0
  1  6  1  0  0  0
  2  7  1  0  0  0
  3  4  1  0  0  0
  3  8  1  0  0  0
  3  9  1  0  0  0
  4 10  1  0  0  0
M  END
$$$$
