DMS_2_A_403
  -ISIS-            3D

 10  9  0  0  0  0  0  0  0  0  1 V2000
   -2.3320  -19.0480   -8.1130 S   0  0  0  0  0
   -3.6420  -18.6620   -8.7760 O   0  0  0  0  0
   -1.0560  -18.1080   -8.9200 C   0  0  0  0  0
   -1.9230  -20.6430   -8.7950 C   0  0  0  0  0
   -0.0594  -18.4644   -8.5882 H   0  0  0  0  0
   -1.1627  -17.0379   -8.6482 H   0  0  0  0  0
   -1.1383  -18.2110  -10.0215 H   0  0  0  0  0
   -0.9036  -20.9390   -8.4732 H   0  0  0  0  0
   -1.9670  -20.6123   -9.9031 H   0  0  0  0  0
   -2.6484  -21.3962   -8.4249 H   0  0  0  0  0
  1  2  2  0  0  0
  1  3  1  0  0  0
  1  4  1  0  0  0
  3  5  1  0  0  0
  3  6  1  0  0  0
  3  7  1  0  0  0
  4  8  1  0  0  0
  4  9  1  0  0  0
  4 10  1  0  0  0
M  END
$$$$
