DMS_1_A_402
  -ISIS-            3D

 10  9  0  0  0  0  0  0  0  0  1 V2000
    6.1800   -0.8450   -6.2630 S   0  0  0  0  0
    7.1730   -0.4590   -7.3250 O   0  0  0  0  0
    7.0710   -0.8680   -4.7240 C   0  0  0  0  0
    5.8980   -2.5890   -6.4310 C   0  0  0  0  0
    6.4216   -1.2708   -3.9199 H   0  0  0  0  0
    7.3710    0.1663   -4.4586 H   0  0  0  0  0
    7.9803   -1.4966   -4.8146 H   0  0  0  0  0
    5.2740   -2.9519   -5.5886 H   0  0  0  0  0
    6.8625   -3.1365   -6.4391 H   0  0  0  0  0
    5.3634   -2.7841   -7.3832 H   0  0  0  0  0
  1  2  2  0  0  0
  1  3  1  0  0  0
  1  4  1  0  0  0
  3  5  1  0  0  0
  3  6  1  0  0  0
  3  7  1  0  0  0
  4  8  1  0  0  0
  4  9  1  0  0  0
  4 10  1  0  0  0
M  END
$$$$
