2D0_1_A_201
  -ISIS-            3D

 16 17  0  0  0  0  0  0  0  0  1 V2000
  -49.1290  -29.1300    5.3200 C   0  0  0  0  0
  -47.8940  -29.4090    5.8830 C   0  0  0  0  0
  -49.2500  -28.9680    3.9330 C   0  0  0  0  0
  -46.7710  -29.5330    5.0550 C   0  0  0  0  0
  -48.1430  -29.0610    3.1220 C   0  0  0  0  0
  -46.8990  -29.3520    3.6820 C   0  0  0  0  0
  -50.2430  -29.0410    6.2360 N   0  0  0  0  0
  -49.7920  -29.2550    7.5160 C   0  0  0  0  0
  -48.1350  -29.5660    7.5260 S   0  0  0  0  0
  -50.6370  -29.2370    8.6770 N   0  0  0  0  0
  -50.8370  -28.5930    3.2440 Cl  0  0  0  0  0
  -45.7879  -29.7701    5.4939 H   0  0  0  0  0
  -48.2317  -28.9125    2.0330 H   0  0  0  0  0
  -46.0120  -29.4389    3.0321 H   0  0  0  0  0
  -50.1818  -29.4170    9.5807 H   0  0  0  0  0
  -51.6291  -29.0436    8.4934 H   0  0  0  0  0
  1  2  2  0  0  0
  1  3  1  0  0  0
  1  7  1  0  0  0
  2  4  1  0  0  0
  2  9  1  0  0  0
  3  5  2  0  0  0
  3 11  1  0  0  0
  4  6  2  0  0  0
  4 12  1  0  0  0
  5  6  1  0  0  0
  5 13  1  0  0  0
  6 14  1  0  0  0
  7  8  1  0  0  0
  8  9  2  0  0  0
  8 10  1  0  0  0
 10 15  1  0  0  0
 10 16  1  0  0  0
M  END
$$$$
