EDO_2_A_402
  -ISIS-            3D

 10  9  0  0  0  0  0  0  0  0  1 V2000
   -5.2980  -42.2610   -7.3980 C   0  0  0  0  0
   -5.4330  -42.3370   -5.9830 O   0  0  0  0  0
   -3.8540  -41.8640   -7.7370 C   0  0  0  0  0
   -3.6650  -40.4510   -7.5870 O   0  0  0  0  0
   -6.0213  -41.5312   -7.8180 H   0  0  0  0  0
   -5.5286  -43.2545   -7.8382 H   0  0  0  0  0
   -6.3238  -42.5919   -5.7820 H   0  0  0  0  0
   -3.6326  -42.1293   -8.7919 H   0  0  0  0  0
   -3.1255  -42.4161   -7.1072 H   0  0  0  0  0
   -3.8501  -40.2463   -6.6790 H   0  0  0  0  0
  1  2  1  0  0  0
  1  3  1  0  0  0
  1  5  1  0  0  0
  1  6  1  0  0  0
  2  7  1  0  0  0
  3  4  1  0  0  0
  3  8  1  0  0  0
  3  9  1  0  0  0
  4 10  1  0  0  0
M  END
$$$$
