DMS_2_A_1004
  -ISIS-            3D

 10  9  0  0  0  0  0  0  0  0  1 V2000
   -2.2590  -18.8940   -8.3920 S   0  0  0  0  0
   -3.5250  -18.9860   -9.1230 O   0  0  0  0  0
   -1.1190  -18.1650   -9.5370 C   0  0  0  0  0
   -1.6210  -20.5450   -8.4680 C   0  0  0  0  0
   -0.0876  -18.2292   -9.1340 H   0  0  0  0  0
   -1.3787  -17.0963   -9.6820 H   0  0  0  0  0
   -1.1651  -18.6827  -10.5171 H   0  0  0  0  0
   -0.5768  -20.5627   -8.0942 H   0  0  0  0  0
   -1.6458  -20.9266   -9.5094 H   0  0  0  0  0
   -2.2390  -21.2070   -7.8273 H   0  0  0  0  0
  1  2  2  0  0  0
  1  3  1  0  0  0
  1  4  1  0  0  0
  3  5  1  0  0  0
  3  6  1  0  0  0
  3  7  1  0  0  0
  4  8  1  0  0  0
  4  9  1  0  0  0
  4 10  1  0  0  0
M  END
$$$$
