DMS_1_A_408
  -ISIS-            3D

 10  9  0  0  0  0  0  0  0  0  1 V2000
   20.9840  -43.6080    4.4730 S   0  0  0  0  0
   19.9180  -43.7200    5.5210 O   0  0  0  0  0
   20.7060  -42.0910    3.6110 C   0  0  0  0  0
   20.5240  -44.7250    3.1660 C   0  0  0  0  0
   21.3863  -42.0234    2.7375 H   0  0  0  0  0
   20.9123  -41.2393    4.2911 H   0  0  0  0  0
   19.6538  -42.0293    3.2653 H   0  0  0  0  0
   21.2071  -44.5944    2.3018 H   0  0  0  0  0
   19.4796  -44.5340    2.8446 H   0  0  0  0  0
   20.6044  -45.7692    3.5316 H   0  0  0  0  0
  1  2  2  0  0  0
  1  3  1  0  0  0
  1  4  1  0  0  0
  3  5  1  0  0  0
  3  6  1  0  0  0
  3  7  1  0  0  0
  4  8  1  0  0  0
  4  9  1  0  0  0
  4 10  1  0  0  0
M  END
$$$$
