DMS_1_A_402
  -ISIS-            3D

 10  9  0  0  0  0  0  0  0  0  1 V2000
    7.7090  -55.4310   21.0510 S   0  0  0  0  0
    8.2470  -54.4990   22.0690 O   0  0  0  0  0
    6.5680  -54.4870   20.1250 C   0  0  0  0  0
    6.5590  -56.4350   21.9430 C   0  0  0  0  0
    5.9917  -55.1492   19.4471 H   0  0  0  0  0
    7.1160  -53.7424   19.5121 H   0  0  0  0  0
    5.8665  -53.9514   20.7974 H   0  0  0  0  0
    5.9804  -57.0636   21.2356 H   0  0  0  0  0
    5.8608  -55.8013   22.5278 H   0  0  0  0  0
    7.1123  -57.0984   22.6389 H   0  0  0  0  0
  1  2  2  0  0  0
  1  3  1  0  0  0
  1  4  1  0  0  0
  3  5  1  0  0  0
  3  6  1  0  0  0
  3  7  1  0  0  0
  4  8  1  0  0  0
  4  9  1  0  0  0
  4 10  1  0  0  0
M  END
$$$$
