DMS_2_A_403
  -ISIS-            3D

 10  9  0  0  0  0  0  0  0  0  1 V2000
   -8.3220  -48.8850  -28.5370 S   0  0  0  0  0
   -9.3490  -48.9850  -29.6370 O   0  0  0  0  0
   -6.8440  -48.2060  -29.2560 C   0  0  0  0  0
   -7.7270  -50.5280  -28.2570 C   0  0  0  0  0
   -6.0172  -48.2376  -28.5172 H   0  0  0  0  0
   -7.0282  -47.1505  -29.5429 H   0  0  0  0  0
   -6.5553  -48.7811  -30.1596 H   0  0  0  0  0
   -6.8764  -50.5048  -27.5454 H   0  0  0  0  0
   -7.3977  -50.9880  -29.2112 H   0  0  0  0  0
   -8.5405  -51.1436  -27.8216 H   0  0  0  0  0
  1  2  2  0  0  0
  1  3  1  0  0  0
  1  4  1  0  0  0
  3  5  1  0  0  0
  3  6  1  0  0  0
  3  7  1  0  0  0
  4  8  1  0  0  0
  4  9  1  0  0  0
  4 10  1  0  0  0
M  END
$$$$
