DMS_2_A_403
  -ISIS-            3D

 10  9  0  0  0  0  0  0  0  0  1 V2000
   -2.2820  -19.0400   -8.1160 S   0  0  0  0  0
   -3.5990  -18.7640   -8.7900 O   0  0  0  0  0
   -1.0660  -18.1310   -9.0250 C   0  0  0  0  0
   -1.7960  -20.6740   -8.6350 C   0  0  0  0  0
   -0.0502  -18.4037   -8.6726 H   0  0  0  0  0
   -1.2214  -17.0450   -8.8607 H   0  0  0  0  0
   -1.1510  -18.3470  -10.1097 H   0  0  0  0  0
   -0.7628  -20.8859   -8.2914 H   0  0  0  0  0
   -1.8436  -20.7587   -9.7400 H   0  0  0  0  0
   -2.4831  -21.4199   -8.1856 H   0  0  0  0  0
  1  2  2  0  0  0
  1  3  1  0  0  0
  1  4  1  0  0  0
  3  5  1  0  0  0
  3  6  1  0  0  0
  3  7  1  0  0  0
  4  8  1  0  0  0
  4  9  1  0  0  0
  4 10  1  0  0  0
M  END
$$$$
