EDO_1_A_406
  -ISIS-            3D

 10  9  0  0  0  0  0  0  0  0  1 V2000
   48.0950  -69.4060   -9.9520 C   0  0  0  0  0
   46.6540  -69.4030   -9.9400 O   0  0  0  0  0
   48.6500  -68.2330  -10.7760 C   0  0  0  0  0
   49.9430  -68.5130  -11.3520 O   0  0  0  0  0
   48.4416  -70.3643  -10.3943 H   0  0  0  0  0
   48.4831  -69.3650   -8.9127 H   0  0  0  0  0
   46.3625  -70.1624   -9.4530 H   0  0  0  0  0
   48.7114  -67.3215  -10.1448 H   0  0  0  0  0
   47.9449  -68.0038  -11.6037 H   0  0  0  0  0
   50.2017  -67.7640  -11.8724 H   0  0  0  0  0
  1  2  1  0  0  0
  1  3  1  0  0  0
  1  5  1  0  0  0
  1  6  1  0  0  0
  2  7  1  0  0  0
  3  4  1  0  0  0
  3  8  1  0  0  0
  3  9  1  0  0  0
  4 10  1  0  0  0
M  END
$$$$
