DMS_2_A_402
  -ISIS-            3D

 10  9  0  0  0  0  0  0  0  0  1 V2000
   30.5070   -5.0730  -45.6060 S   0  0  0  0  0
   30.8280   -6.2290  -44.7350 O   0  0  0  0  0
   28.8930   -4.6040  -45.4600 C   0  0  0  0  0
   31.5380   -3.8260  -45.0580 C   0  0  0  0  0
   28.7013   -3.7069  -46.0831 H   0  0  0  0  0
   28.6554   -4.3663  -44.4029 H   0  0  0  0  0
   28.2293   -5.4241  -45.8021 H   0  0  0  0  0
   31.3740   -2.9099  -45.6612 H   0  0  0  0  0
   32.5976   -4.1366  -45.1637 H   0  0  0  0  0
   31.3326   -3.5970  -43.9921 H   0  0  0  0  0
  1  2  2  0  0  0
  1  3  1  0  0  0
  1  4  1  0  0  0
  3  5  1  0  0  0
  3  6  1  0  0  0
  3  7  1  0  0  0
  4  8  1  0  0  0
  4  9  1  0  0  0
  4 10  1  0  0  0
M  END
$$$$
