1SQ_1_A_201
  -ISIS-            3D

 19 20  0  0  0  0  0  0  0  0  1 V2000
    9.9770   21.4900   10.0020 N   0  0  0  0  0
   10.4110   21.0930    8.6750 C   0  0  0  0  0
    9.9770   19.9490    8.1690 N   0  0  0  0  0
   10.3380   19.5310    6.9610 C   0  0  0  0  0
   11.1980   20.3070    6.1930 C   0  0  0  0  0
   11.6890   21.5470    6.7030 C   0  0  0  0  0
   12.5710   22.3660    5.9420 C   0  0  0  0  0
   13.0310   23.5690    6.4680 C   0  0  0  0  0
   12.6280   23.9740    7.7430 C   0  0  0  0  0
   11.7660   23.1760    8.4870 C   0  0  0  0  0
   11.2940   21.9430    7.9500 C   0  0  0  0  0
   10.3024   22.3719   10.4109 H   0  0  0  0  0
    9.3432   20.8117   10.4428 H   0  0  0  0  0
    9.9475   18.5708    6.5867 H   0  0  0  0  0
   11.4995   19.9624    5.1900 H   0  0  0  0  0
   12.8921   22.0505    4.9350 H   0  0  0  0  0
   13.7144   24.2038    5.8789 H   0  0  0  0  0
   12.9949   24.9284    8.1576 H   0  0  0  0  0
   11.4739   23.5336    9.4850 H   0  0  0  0  0
  1  2  1  0  0  0
  1 12  1  0  0  0
  1 13  1  0  0  0
  2  3  2  0  0  0
  2 11  1  0  0  0
  3  4  1  0  0  0
  4  5  2  0  0  0
  4 14  1  0  0  0
  5  6  1  0  0  0
  5 15  1  0  0  0
  6  7  2  0  0  0
  6 11  1  0  0  0
  7  8  1  0  0  0
  7 16  1  0  0  0
  8  9  2  0  0  0
  8 17  1  0  0  0
  9 10  1  0  0  0
  9 18  1  0  0  0
 10 11  2  0  0  0
 10 19  1  0  0  0
M  END
$$$$
