DMS_1_A_404
  -ISIS-            3D

 10  9  0  0  0  0  0  0  0  0  1 V2000
    7.6210  -43.1510   29.6150 S   0  0  0  0  0
    6.9430  -44.0230   28.6070 O   0  0  0  0  0
    6.4640  -42.7420   30.9520 C   0  0  0  0  0
    8.8460  -44.1150   30.5400 C   0  0  0  0  0
    6.9875  -42.1444   31.7260 H   0  0  0  0  0
    6.0681  -43.6740   31.4050 H   0  0  0  0  0
    5.6232  -42.1483   30.5386 H   0  0  0  0  0
    9.3030  -43.4789   31.3254 H   0  0  0  0  0
    9.6376  -44.4628   29.8453 H   0  0  0  0  0
    8.3573  -44.9933   31.0093 H   0  0  0  0  0
  1  2  2  0  0  0
  1  3  1  0  0  0
  1  4  1  0  0  0
  3  5  1  0  0  0
  3  6  1  0  0  0
  3  7  1  0  0  0
  4  8  1  0  0  0
  4  9  1  0  0  0
  4 10  1  0  0  0
M  END
$$$$
