EDO_1_A_504
  -ISIS-            3D

 10  9  0  0  0  0  0  0  0  0  1 V2000
    3.8760    9.6140   37.5080 C   0  0  0  0  0
    3.4190   10.6420   38.4090 O   0  0  0  0  0
    5.2890    9.8010   37.0660 C   0  0  0  0  0
    5.4170   10.9560   36.2550 O   0  0  0  0  0
    3.1955    9.5741   36.6313 H   0  0  0  0  0
    3.7717    8.6372   38.0255 H   0  0  0  0  0
    3.6918   11.4707   38.0340 H   0  0  0  0  0
    5.6444    8.9109   36.5040 H   0  0  0  0  0
    5.9567    9.9064   37.9462 H   0  0  0  0  0
    5.1911   10.7295   35.3622 H   0  0  0  0  0
  1  2  1  0  0  0
  1  3  1  0  0  0
  1  5  1  0  0  0
  1  6  1  0  0  0
  2  7  1  0  0  0
  3  4  1  0  0  0
  3  8  1  0  0  0
  3  9  1  0  0  0
  4 10  1  0  0  0
M  END
$$$$
