EDO_1_A_601
  -ISIS-            3D

 10  9  0  0  0  0  0  0  0  0  1 V2000
   -0.2160  -35.0260   18.9170 C   0  0  0  0  0
    1.1620  -34.6360   19.1140 O   0  0  0  0  0
   -1.1130  -33.8090   18.6310 C   0  0  0  0  0
   -0.4370  -32.8840   17.7390 O   0  0  0  0  0
   -0.5733  -35.5746   19.8124 H   0  0  0  0  0
   -0.2615  -35.7345   18.0631 H   0  0  0  0  0
    1.3224  -33.9241   18.5043 H   0  0  0  0  0
   -1.3462  -33.2849   19.5822 H   0  0  0  0  0
   -2.0759  -34.1325   18.1833 H   0  0  0  0  0
   -1.0133  -32.1463   17.5911 H   0  0  0  0  0
  1  2  1  0  0  0
  1  3  1  0  0  0
  1  5  1  0  0  0
  1  6  1  0  0  0
  2  7  1  0  0  0
  3  4  1  0  0  0
  3  8  1  0  0  0
  3  9  1  0  0  0
  4 10  1  0  0  0
M  END
$$$$
