EDO_1_A_602
  -ISIS-            3D

 10  9  0  0  0  0  0  0  0  0  1 V2000
    3.0730  -20.8260   32.9330 C   0  0  0  0  0
    2.8810  -19.5300   32.3560 O   0  0  0  0  0
    4.5140  -21.0030   33.4000 C   0  0  0  0  0
    4.8470  -19.9880   34.3570 O   0  0  0  0  0
    2.8006  -21.6134   32.1980 H   0  0  0  0  0
    2.3794  -20.9373   33.7923 H   0  0  0  0  0
    3.1081  -19.5736   31.4364 H   0  0  0  0  0
    5.2154  -20.9439   32.5417 H   0  0  0  0  0
    4.6517  -21.9989   33.8686 H   0  0  0  0  0
    4.4709  -19.1773   34.0333 H   0  0  0  0  0
  1  2  1  0  0  0
  1  3  1  0  0  0
  1  5  1  0  0  0
  1  6  1  0  0  0
  2  7  1  0  0  0
  3  4  1  0  0  0
  3  8  1  0  0  0
  3  9  1  0  0  0
  4 10  1  0  0  0
M  END
$$$$
