EDO_1_H_301
  -ISIS-            3D

 10  9  0  0  0  0  0  0  0  0  1 V2000
    1.5400  -14.9500   10.1940 C   0  0  0  0  0
    2.7880  -14.5040   10.7560 O   0  0  0  0  0
    0.8320  -13.8010    9.4800 C   0  0  0  0  0
    1.6900  -13.2210    8.4940 O   0  0  0  0  0
    0.9026  -15.3557   11.0065 H   0  0  0  0  0
    1.7367  -15.7828    9.4864 H   0  0  0  0  0
    3.2148  -13.9948   10.0763 H   0  0  0  0  0
    0.5363  -13.0223   10.2150 H   0  0  0  0  0
   -0.0972  -14.1687    8.9955 H   0  0  0  0  0
    1.2203  -12.5149    8.0705 H   0  0  0  0  0
  1  2  1  0  0  0
  1  3  1  0  0  0
  1  5  1  0  0  0
  1  6  1  0  0  0
  2  7  1  0  0  0
  3  4  1  0  0  0
  3  8  1  0  0  0
  3  9  1  0  0  0
  4 10  1  0  0  0
M  END
$$$$
