EDO_1_A_604
  -ISIS-            3D

 10  9  0  0  0  0  0  0  0  0  1 V2000
    2.8700  -38.8330   19.2920 C   0  0  0  0  0
    2.1310  -40.0850   19.2400 O   0  0  0  0  0
    2.3310  -37.8750   20.3610 C   0  0  0  0  0
    1.8130  -38.6110   21.4750 O   0  0  0  0  0
    2.8495  -38.3449   18.2949 H   0  0  0  0  0
    3.9335  -39.0651   19.5155 H   0  0  0  0  0
    2.5298  -40.6333   18.5777 H   0  0  0  0  0
    1.5111  -37.2582   19.9364 H   0  0  0  0  0
    3.1193  -37.1766   20.7085 H   0  0  0  0  0
    1.4377  -39.4102   21.1222 H   0  0  0  0  0
  1  2  1  0  0  0
  1  3  1  0  0  0
  1  5  1  0  0  0
  1  6  1  0  0  0
  2  7  1  0  0  0
  3  4  1  0  0  0
  3  8  1  0  0  0
  3  9  1  0  0  0
  4 10  1  0  0  0
M  END
$$$$
