EDO_1_M_303
  -ISIS-            3D

 10  9  0  0  0  0  0  0  0  0  1 V2000
  -22.5330  -47.9870   20.3290 C   0  0  0  0  0
  -22.3510  -48.7810   21.5120 O   0  0  0  0  0
  -21.2010  -47.4520   19.8090 C   0  0  0  0  0
  -20.2150  -48.4740   19.8730 O   0  0  0  0  0
  -23.2322  -47.1546   20.5500 H   0  0  0  0  0
  -23.0161  -48.6172   19.5524 H   0  0  0  0  0
  -21.5570  -49.2850   21.3723 H   0  0  0  0  0
  -20.8733  -46.5915   20.4306 H   0  0  0  0  0
  -21.3080  -47.0880   18.7655 H   0  0  0  0  0
  -19.3971  -48.1193   19.5511 H   0  0  0  0  0
  1  2  1  0  0  0
  1  3  1  0  0  0
  1  5  1  0  0  0
  1  6  1  0  0  0
  2  7  1  0  0  0
  3  4  1  0  0  0
  3  8  1  0  0  0
  3  9  1  0  0  0
  4 10  1  0  0  0
M  END
$$$$
