EDO_1_N_302
  -ISIS-            3D

 10  9  0  0  0  0  0  0  0  0  1 V2000
  -12.4760  -91.7430   18.3370 C   0  0  0  0  0
  -11.1480  -92.3300   18.2500 O   0  0  0  0  0
  -12.9540  -91.1990   16.9820 C   0  0  0  0  0
  -12.0120  -90.2570   16.4350 O   0  0  0  0  0
  -12.4599  -90.9211   19.0841 H   0  0  0  0  0
  -13.1908  -92.5078   18.7079 H   0  0  0  0  0
  -10.9107  -92.6461   19.1115 H   0  0  0  0  0
  -13.9389  -90.7000   17.0916 H   0  0  0  0  0
  -13.0905  -92.0334   16.2623 H   0  0  0  0  0
  -11.1536  -90.6506   16.5417 H   0  0  0  0  0
  1  2  1  0  0  0
  1  3  1  0  0  0
  1  5  1  0  0  0
  1  6  1  0  0  0
  2  7  1  0  0  0
  3  4  1  0  0  0
  3  8  1  0  0  0
  3  9  1  0  0  0
  4 10  1  0  0  0
M  END
$$$$
