DMS_2_A_402
  -ISIS-            3D

 10  9  0  0  0  0  0  0  0  0  1 V2000
   -6.1120   -1.2260    6.1710 S   0  0  0  0  0
   -6.8060   -1.0460    7.4850 O   0  0  0  0  0
   -7.3270   -0.8660    4.9220 C   0  0  0  0  0
   -5.9960   -2.9740    5.9010 C   0  0  0  0  0
   -6.9215   -1.1153    3.9200 H   0  0  0  0  0
   -7.5717    0.2155    4.9502 H   0  0  0  0  0
   -8.2522   -1.4506    5.1027 H   0  0  0  0  0
   -5.6207   -3.1727    4.8762 H   0  0  0  0  0
   -6.9883   -3.4525    6.0304 H   0  0  0  0  0
   -5.2864   -3.4116    6.6327 H   0  0  0  0  0
  1  2  2  0  0  0
  1  3  1  0  0  0
  1  4  1  0  0  0
  3  5  1  0  0  0
  3  6  1  0  0  0
  3  7  1  0  0  0
  4  8  1  0  0  0
  4  9  1  0  0  0
  4 10  1  0  0  0
M  END
$$$$
