BVF_1_A_201
  -ISIS-            3D

 16 16  0  0  0  0  0  0  0  0  1 V2000
   12.4390   23.4240    7.9180 C   0  0  0  0  0
   12.3510   24.5330    8.7440 C   0  0  0  0  0
   11.5010   24.4720    9.8390 C   0  0  0  0  0
   10.7720   23.3140   10.0710 C   0  0  0  0  0
   10.9250   22.2540    9.1910 C   0  0  0  0  0
   11.7390   22.3320    8.1560 N   0  0  0  0  0
   10.1770   21.0310    9.4170 N   0  0  0  0  0
   11.3680   25.6670   10.7790 C   0  0  0  0  0
   13.1044   23.4377    7.0387 H   0  0  0  0  0
   12.9422   25.4394    8.5341 H   0  0  0  0  0
   10.0895   23.2369   10.9321 H   0  0  0  0  0
    9.5512   20.9976   10.2318 H   0  0  0  0  0
   10.3496   20.2950    8.7211 H   0  0  0  0  0
   10.6529   25.4711   11.6078 H   0  0  0  0  0
   11.0052   26.5648   10.2311 H   0  0  0  0  0
   12.3487   25.9220   11.2384 H   0  0  0  0  0
  1  2  2  0  0  0
  1  6  1  0  0  0
  1  9  1  0  0  0
  2  3  1  0  0  0
  2 10  1  0  0  0
  3  4  2  0  0  0
  3  8  1  0  0  0
  4  5  1  0  0  0
  4 11  1  0  0  0
  5  6  2  0  0  0
  5  7  1  0  0  0
  7 12  1  0  0  0
  7 13  1  0  0  0
  8 14  1  0  0  0
  8 15  1  0  0  0
  8 16  1  0  0  0
M  END
$$$$
