DMS_2_A_1006
  -ISIS-            3D

 10  9  0  0  0  0  0  0  0  0  1 V2000
  -20.8500   14.6500   -7.9810 S   0  0  0  0  0
  -21.7460   15.7860   -8.2460 O   0  0  0  0  0
  -21.2390   13.4550   -9.2260 C   0  0  0  0  0
  -21.5580   13.8330   -6.5810 C   0  0  0  0  0
  -20.7208   12.4997   -9.0045 H   0  0  0  0  0
  -20.8965   13.8271  -10.2132 H   0  0  0  0  0
  -22.3337   13.2791   -9.2659 H   0  0  0  0  0
  -21.0358   12.8706   -6.4041 H   0  0  0  0  0
  -22.6375   13.6401   -6.7495 H   0  0  0  0  0
  -21.4412   14.4734   -5.6829 H   0  0  0  0  0
  1  2  2  0  0  0
  1  3  1  0  0  0
  1  4  1  0  0  0
  3  5  1  0  0  0
  3  6  1  0  0  0
  3  7  1  0  0  0
  4  8  1  0  0  0
  4  9  1  0  0  0
  4 10  1  0  0  0
M  END
$$$$
