EDO_2_A_407
  -ISIS-            3D

 10  9  0  0  0  0  0  0  0  0  1 V2000
    2.1700   -4.2600   22.8710 C   0  0  0  0  0
    1.5800   -3.4950   21.8040 O   0  0  0  0  0
    2.6130   -5.5940   22.2570 C   0  0  0  0  0
    2.6130   -6.6410   23.2060 O   0  0  0  0  0
    1.4110   -4.4269   23.6642 H   0  0  0  0  0
    3.0274   -3.7143   23.3163 H   0  0  0  0  0
    1.2312   -2.6940   22.1722 H   0  0  0  0  0
    3.6150   -5.4985   21.7881 H   0  0  0  0  0
    1.9124   -5.8830   21.4454 H   0  0  0  0  0
    3.3869   -6.5572   23.7475 H   0  0  0  0  0
  1  2  1  0  0  0
  1  3  1  0  0  0
  1  5  1  0  0  0
  1  6  1  0  0  0
  2  7  1  0  0  0
  3  4  1  0  0  0
  3  8  1  0  0  0
  3  9  1  0  0  0
  4 10  1  0  0  0
M  END
$$$$
