IPA_2_A_406
  -ISIS-            3D

 12 11  0  0  0  0  0  0  0  0  1 V2000
   -2.7050  -16.3360   19.8690 C   0  0  0  0  0
   -3.2530  -16.1830   18.4490 C   0  0  0  0  0
   -2.3890  -15.1720   17.6680 C   0  0  0  0  0
   -3.2130  -17.4020   17.7360 O   0  0  0  0  0
   -3.3073  -17.0574   20.4635 H   0  0  0  0  0
   -2.7178  -15.3706   20.4207 H   0  0  0  0  0
   -1.6561  -16.7052   19.8696 H   0  0  0  0  0
   -4.3003  -15.8054   18.4930 H   0  0  0  0  0
   -2.7687  -15.0267   16.6328 H   0  0  0  0  0
   -1.3316  -15.5068   17.5877 H   0  0  0  0  0
   -2.3851  -14.1731   18.1565 H   0  0  0  0  0
   -3.8527  -17.9912   18.1132 H   0  0  0  0  0
  1  2  1  0  0  0
  1  5  1  0  0  0
  1  6  1  0  0  0
  1  7  1  0  0  0
  2  3  1  0  0  0
  2  4  1  0  0  0
  2  8  1  0  0  0
  3  9  1  0  0  0
  3 10  1  0  0  0
  3 11  1  0  0  0
  4 12  1  0  0  0
M  END
$$$$
