NNA_2_A_401
  -ISIS-            3D

112115  0  0  0  0  0  0  0  0  1 V2000
    7.6610    3.5540   45.2140 C   0  0  0  0  0
    8.0680    3.2230   46.3420 O   0  0  0  0  0
    8.3810    4.3030   44.3510 N   0  0  0  0  0
    9.7200    4.8740   44.5990 C   0  0  0  0  0
   10.7430    3.7510   44.8410 C   0  0  0  0  0
   10.1720    5.7010   43.3840 C   0  0  0  0  0
   10.9930    2.9050   43.6020 C   0  0  0  0  0
   10.4270    4.8440   42.1520 C   0  0  0  0  0
   11.4510    3.7680   42.4440 C   0  0  0  0  0
    9.6600    5.7810   45.8520 C   0  0  0  0  0
    8.5730    7.1890   45.8170 S   0  0  0  0  0
    7.3230    6.8020   45.2340 O   0  0  0  0  0
    9.2840    8.3110   45.2800 O   0  0  0  0  0
    8.2240    7.6060   47.5320 C   0  0  0  0  0
    9.4910    8.1700   48.1670 C   0  0  0  0  0
    7.8080    6.3360   48.2650 C   0  0  0  0  0
    7.1080    8.6400   47.5880 C   0  0  0  0  0
    6.4460    3.1710   44.7640 N   0  0  0  0  0
    5.6470    2.2090   45.5050 C   0  0  0  0  0
    4.2280    2.7140   45.8180 C   0  0  0  0  0
    4.3000    3.9180   46.7610 C   0  0  0  0  0
    3.4940    3.1410   44.5440 C   0  0  0  0  0
    3.4210    1.6090   46.5060 C   0  0  0  0  0
    5.6770    0.8710   44.7670 C   0  0  0  0  0
    5.1660    0.7300   43.6600 O   0  0  0  0  0
    6.3150   -0.1460   45.3670 N   0  0  0  0  0
    6.9700   -0.0890   46.6810 C   0  0  0  0  0
    6.3840   -1.4570   44.7220 C   0  0  0  0  0
    7.4260   -2.2140   45.5250 C   0  0  0  0  0
    7.7140   -1.4060   46.7760 C   0  0  0  0  0
    8.8130   -1.6710   45.7840 C   0  0  0  0  0
    9.8950   -2.6530   46.1780 C   0  0  0  0  0
    9.3300   -0.5680   44.8860 C   0  0  0  0  0
    5.0380   -2.1710   44.8030 C   0  0  0  0  0
    4.5190   -2.4150   45.8910 O   0  0  0  0  0
    4.4710   -2.4770   43.6360 N   0  0  0  0  0
    3.0930   -2.9830   43.5470 C   0  0  0  0  0
    2.2070   -1.9620   42.8290 C   0  0  0  0  0
    2.1520   -0.6190   43.5200 C   0  0  0  0  0
    1.4700    0.4370   42.6860 C   0  0  0  0  0
    0.0590    0.0880   42.2780 C   0  0  0  0  0
    4.0420   -5.2160   43.3740 O   0  0  0  0  0
    3.0350   -4.3560   42.8510 C   0  0  0  0  0
    0.8710   -4.9710   42.0810 O   0  0  0  0  0
    1.4010   -5.4980   44.2190 N   0  0  0  0  0
    0.1350   -6.1190   44.5020 C   0  0  0  0  0
   -0.7920   -5.4050   45.4210 C   0  0  0  0  0
   -0.0920   -6.6340   45.8790 C   0  0  0  0  0
    1.6710   -4.9710   43.0210 C   0  0  0  0  0
    7.9439    4.5207   43.4466 H   0  0  0  0  0
   10.4222    3.0939   45.6798 H   0  0  0  0  0
   11.7114    4.1995   45.1644 H   0  0  0  0  0
   11.1061    6.2548   43.6368 H   0  0  0  0  0
    9.4104    6.4742   43.1332 H   0  0  0  0  0
   10.0657    2.3530   43.3239 H   0  0  0  0  0
   11.7644    2.1313   43.8240 H   0  0  0  0  0
   10.7903    5.4892   41.3183 H   0  0  0  0  0
    9.4792    4.3812   41.7943 H   0  0  0  0  0
   11.6057    3.1360   41.5388 H   0  0  0  0  0
   12.4370    4.2316   42.6792 H   0  0  0  0  0
   10.6692    6.1811   46.0842 H   0  0  0  0  0
    9.3847    5.1634   46.7220 H   0  0  0  0  0
    9.3287    8.4190   49.2385 H   0  0  0  0  0
    9.8346    9.1076   47.6785 H   0  0  0  0  0
   10.3420    7.4558   48.1386 H   0  0  0  0  0
    7.4199    6.5780   49.2786 H   0  0  0  0  0
    8.6383    5.6225   48.4413 H   0  0  0  0  0
    6.9905    5.7867   47.7493 H   0  0  0  0  0
    6.8820    8.9429   48.6336 H   0  0  0  0  0
    6.1561    8.2600   47.1571 H   0  0  0  0  0
    7.3668    9.5708   47.0375 H   0  0  0  0  0
    6.0964    3.5109   43.8594 H   0  0  0  0  0
    6.0996    2.0552   46.5074 H   0  0  0  0  0
    3.2888    4.3040   47.0202 H   0  0  0  0  0
    4.8621    4.7672   46.3124 H   0  0  0  0  0
    4.8047    3.6676   47.7209 H   0  0  0  0  0
    2.4413    3.4321   44.7582 H   0  0  0  0  0
    3.4495    2.3394   43.7799 H   0  0  0  0  0
    3.9648    4.0235   44.0584 H   0  0  0  0  0
    2.3949    1.9487   46.7709 H   0  0  0  0  0
    3.9007    1.2731   47.4523 H   0  0  0  0  0
    3.3013    0.7074   45.8693 H   0  0  0  0  0
    6.2197   -0.0360   47.5027 H   0  0  0  0  0
    7.6908    0.7481   46.7990 H   0  0  0  0  0
    6.7346   -1.3866   43.6668 H   0  0  0  0  0
    7.3061   -3.2909   45.6225 H   0  0  0  0  0
    7.7726   -1.9139   47.7350 H   0  0  0  0  0
   10.7092   -2.1396   46.7358 H   0  0  0  0  0
   10.3416   -3.1315   45.2785 H   0  0  0  0  0
    9.5020   -3.4645   46.8293 H   0  0  0  0  0
   10.1231    0.0144   45.4053 H   0  0  0  0  0
    8.5584    0.1568   44.5585 H   0  0  0  0  0
    9.7798   -0.9975   43.9636 H   0  0  0  0  0
    4.9920   -2.3224   42.7621 H   0  0  0  0  0
    2.6729   -3.1143   44.5719 H   0  0  0  0  0
    1.1749   -2.3708   42.7444 H   0  0  0  0  0
    2.5839   -1.8276   41.7883 H   0  0  0  0  0
    3.1777   -0.2785   43.7591 H   0  0  0  0  0
    1.6241   -0.7261   44.4961 H   0  0  0  0  0
    2.0765    0.6466   41.7742 H   0  0  0  0  0
    1.4403    1.3896   43.2636 H   0  0  0  0  0
   -0.4354    0.9437   41.7652 H   0  0  0  0  0
   -0.5737   -0.1727   43.1559 H   0  0  0  0  0
    0.0207   -0.7692   41.5703 H   0  0  0  0  0
    4.0404   -6.0247   42.8785 H   0  0  0  0  0
    3.2312   -4.2054   41.7645 H   0  0  0  0  0
    2.1536   -5.4555   44.9228 H   0  0  0  0  0
   -0.3400   -6.7009   43.7119 H   0  0  0  0  0
   -1.8513   -5.5126   45.2041 H   0  0  0  0  0
   -0.4283   -4.4681   45.8342 H   0  0  0  0  0
    0.7125   -6.4827   46.5934 H   0  0  0  0  0
   -0.7041   -7.5286   45.9571 H   0  0  0  0  0
  1  2  2  0  0  0
  1  3  1  0  0  0
  1 18  1  0  0  0
  3  4  1  0  0  0
  3 50  1  0  0  0
  4  5  1  0  0  0
  4  6  1  0  0  0
  4 10  1  0  0  0
  5  7  1  0  0  0
  5 51  1  0  0  0
  5 52  1  0  0  0
  6  8  1  0  0  0
  6 53  1  0  0  0
  6 54  1  0  0  0
  7  9  1  0  0  0
  7 55  1  0  0  0
  7 56  1  0  0  0
  8  9  1  0  0  0
  8 57  1  0  0  0
  8 58  1  0  0  0
  9 59  1  0  0  0
  9 60  1  0  0  0
 10 11  1  0  0  0
 10 61  1  0  0  0
 10 62  1  0  0  0
 11 12  2  0  0  0
 11 13  2  0  0  0
 11 14  1  0  0  0
 14 15  1  0  0  0
 14 16  1  0  0  0
 14 17  1  0  0  0
 15 63  1  0  0  0
 15 64  1  0  0  0
 15 65  1  0  0  0
 16 66  1  0  0  0
 16 67  1  0  0  0
 16 68  1  0  0  0
 17 69  1  0  0  0
 17 70  1  0  0  0
 17 71  1  0  0  0
 18 19  1  0  0  0
 18 72  1  0  0  0
 19 20  1  0  0  0
 19 24  1  0  0  0
 19 73  1  0  0  0
 20 21  1  0  0  0
 20 22  1  0  0  0
 20 23  1  0  0  0
 21 74  1  0  0  0
 21 75  1  0  0  0
 21 76  1  0  0  0
 22 77  1  0  0  0
 22 78  1  0  0  0
 22 79  1  0  0  0
 23 80  1  0  0  0
 23 81  1  0  0  0
 23 82  1  0  0  0
 24 25  2  0  0  0
 24 26  1  0  0  0
 26 27  1  0  0  0
 26 28  1  0  0  0
 27 30  1  0  0  0
 27 83  1  0  0  0
 27 84  1  0  0  0
 28 29  1  0  0  0
 28 34  1  0  0  0
 28 85  1  0  0  0
 29 30  1  0  0  0
 29 31  1  0  0  0
 29 86  1  0  0  0
 30 31  1  0  0  0
 30 87  1  0  0  0
 31 32  1  0  0  0
 31 33  1  0  0  0
 32 88  1  0  0  0
 32 89  1  0  0  0
 32 90  1  0  0  0
 33 91  1  0  0  0
 33 92  1  0  0  0
 33 93  1  0  0  0
 34 35  2  0  0  0
 34 36  1  0  0  0
 36 37  1  0  0  0
 36 94  1  0  0  0
 37 38  1  0  0  0
 37 43  1  0  0  0
 37 95  1  0  0  0
 38 39  1  0  0  0
 38 96  1  0  0  0
 38 97  1  0  0  0
 39 40  1  0  0  0
 39 98  1  0  0  0
 39 99  1  0  0  0
 40 41  1  0  0  0
 40100  1  0  0  0
 40101  1  0  0  0
 41102  1  0  0  0
 41103  1  0  0  0
 41104  1  0  0  0
 42 43  1  0  0  0
 42105  1  0  0  0
 43 49  1  0  0  0
 43106  1  0  0  0
 44 49  2  0  0  0
 45 46  1  0  0  0
 45 49  1  0  0  0
 45107  1  0  0  0
 46 47  1  0  0  0
 46 48  1  0  0  0
 46108  1  0  0  0
 47 48  1  0  0  0
 47109  1  0  0  0
 47110  1  0  0  0
 48111  1  0  0  0
 48112  1  0  0  0
M  END
$$$$
