EDO_1_A_304
  -ISIS-            3D

 10  9  0  0  0  0  0  0  0  0  1 V2000
   13.7110   16.4410   38.0250 C   0  0  0  0  0
   14.8530   16.1900   37.1890 O   0  0  0  0  0
   14.0780   16.3230   39.5070 C   0  0  0  0  0
   14.5610   15.0070   39.8400 O   0  0  0  0  0
   12.9185   15.7063   37.7722 H   0  0  0  0  0
   13.2975   17.4481   37.8051 H   0  0  0  0  0
   15.3373   16.9992   37.0911 H   0  0  0  0  0
   13.1911   16.5427   40.1368 H   0  0  0  0  0
   14.8536   17.0718   39.7724 H   0  0  0  0  0
   15.1350   14.7440   39.1300 H   0  0  0  0  0
  1  2  1  0  0  0
  1  3  1  0  0  0
  1  5  1  0  0  0
  1  6  1  0  0  0
  2  7  1  0  0  0
  3  4  1  0  0  0
  3  8  1  0  0  0
  3  9  1  0  0  0
  4 10  1  0  0  0
M  END
$$$$
