EDO_1_M_201
  -ISIS-            3D

 10  9  0  0  0  0  0  0  0  0  1 V2000
   21.1740    8.0290   39.3870 C   0  0  0  0  0
   21.7230    6.7020   39.4250 O   0  0  0  0  0
   21.7610    8.7770   38.1970 C   0  0  0  0  0
   23.1870    8.5660   38.1380 O   0  0  0  0  0
   21.4269    8.5564   40.3314 H   0  0  0  0  0
   20.0672    7.9824   39.3131 H   0  0  0  0  0
   21.3512    6.2504   40.1707 H   0  0  0  0  0
   21.5516    9.8639   38.2679 H   0  0  0  0  0
   21.3057    8.4149   37.2511 H   0  0  0  0  0
   23.3270    7.6462   38.3336 H   0  0  0  0  0
  1  2  1  0  0  0
  1  3  1  0  0  0
  1  5  1  0  0  0
  1  6  1  0  0  0
  2  7  1  0  0  0
  3  4  1  0  0  0
  3  8  1  0  0  0
  3  9  1  0  0  0
  4 10  1  0  0  0
M  END
$$$$
