EDO_1_M_205
  -ISIS-            3D

 10  9  0  0  0  0  0  0  0  0  1 V2000
   -6.5250    4.0520   44.4340 C   0  0  0  0  0
   -7.9240    4.1500   44.1020 O   0  0  0  0  0
   -6.3610    4.3360   45.9200 C   0  0  0  0  0
   -6.8930    5.6470   46.1450 O   0  0  0  0  0
   -5.9441    4.7730   43.8213 H   0  0  0  0  0
   -6.1620    3.0339   44.1848 H   0  0  0  0  0
   -8.2243    4.9728   44.4716 H   0  0  0  0  0
   -5.2905    4.3034   46.2119 H   0  0  0  0  0
   -6.9108    3.5905   46.5320 H   0  0  0  0  0
   -6.7926    5.8516   47.0650 H   0  0  0  0  0
  1  2  1  0  0  0
  1  3  1  0  0  0
  1  5  1  0  0  0
  1  6  1  0  0  0
  2  7  1  0  0  0
  3  4  1  0  0  0
  3  8  1  0  0  0
  3  9  1  0  0  0
  4 10  1  0  0  0
M  END
$$$$
