EDO_1_A_316
  -ISIS-            3D

 10  9  0  0  0  0  0  0  0  0  1 V2000
    4.8970   20.7520   33.3150 C   0  0  0  0  0
    5.9260   19.7820   33.4130 O   0  0  0  0  0
    5.5470   22.0770   32.9540 C   0  0  0  0  0
    4.5790   23.1220   33.0930 O   0  0  0  0  0
    4.3463   20.8174   34.2773 H   0  0  0  0  0
    4.1717   20.4430   32.5346 H   0  0  0  0  0
    6.2864   19.8022   34.2897 H   0  0  0  0  0
    5.9155   22.0595   31.9076 H   0  0  0  0  0
    6.4195   22.2905   33.6076 H   0  0  0  0  0
    4.5640   23.4060   33.9979 H   0  0  0  0  0
  1  2  1  0  0  0
  1  3  1  0  0  0
  1  5  1  0  0  0
  1  6  1  0  0  0
  2  7  1  0  0  0
  3  4  1  0  0  0
  3  8  1  0  0  0
  3  9  1  0  0  0
  4 10  1  0  0  0
M  END
$$$$
