EDO_1_A_303
  -ISIS-            3D

 10  9  0  0  0  0  0  0  0  0  1 V2000
   -0.9890   -6.2480   18.6460 C   0  0  0  0  0
    0.3840   -6.5800   18.4370 O   0  0  0  0  0
   -1.7540   -7.5010   19.0860 C   0  0  0  0  0
   -1.9420   -8.3530   17.9330 O   0  0  0  0  0
   -1.4261   -5.8181   17.7205 H   0  0  0  0  0
   -1.0555   -5.4709   19.4368 H   0  0  0  0  0
    0.8312   -5.8148   18.0989 H   0  0  0  0  0
   -2.7429   -7.2291   19.5118 H   0  0  0  0  0
   -1.1962   -8.0548   19.8685 H   0  0  0  0  0
   -2.6457   -7.9986   17.4054 H   0  0  0  0  0
  1  2  1  0  0  0
  1  3  1  0  0  0
  1  5  1  0  0  0
  1  6  1  0  0  0
  2  7  1  0  0  0
  3  4  1  0  0  0
  3  8  1  0  0  0
  3  9  1  0  0  0
  4 10  1  0  0  0
M  END
$$$$
