EDO_1_A_319
  -ISIS-            3D

 10  9  0  0  0  0  0  0  0  0  1 V2000
   34.1470   -2.4280    0.3880 C   0  0  0  0  0
   34.8420   -1.5510    1.2830 O   0  0  0  0  0
   34.2510   -3.8560    0.9160 C   0  0  0  0  0
   33.4770   -4.0190    2.1260 O   0  0  0  0  0
   34.6111   -2.3512   -0.6168 H   0  0  0  0  0
   33.0885   -2.1097    0.2903 H   0  0  0  0  0
   34.5294   -1.7485    2.1583 H   0  0  0  0  0
   35.3090   -4.1158    1.1272 H   0  0  0  0  0
   33.8933   -4.5754    0.1490 H   0  0  0  0  0
   32.5904   -4.2528    1.8855 H   0  0  0  0  0
  1  2  1  0  0  0
  1  3  1  0  0  0
  1  5  1  0  0  0
  1  6  1  0  0  0
  2  7  1  0  0  0
  3  4  1  0  0  0
  3  8  1  0  0  0
  3  9  1  0  0  0
  4 10  1  0  0  0
M  END
$$$$
