DMS_2_A_402
  -ISIS-            3D

 10  9  0  0  0  0  0  0  0  0  1 V2000
   -6.1970   -1.0980    6.2500 S   0  0  0  0  0
   -7.0590   -0.8510    7.4340 O   0  0  0  0  0
   -7.2340   -0.9260    4.8140 C   0  0  0  0  0
   -5.9530   -2.8490    6.1480 C   0  0  0  0  0
   -6.6733   -1.2288    3.9061 H   0  0  0  0  0
   -7.5394    0.1352    4.7085 H   0  0  0  0  0
   -8.1424   -1.5546    4.9153 H   0  0  0  0  0
   -5.4255   -3.1022    5.2057 H   0  0  0  0  0
   -6.9271   -3.3788    6.1803 H   0  0  0  0  0
   -5.3329   -3.1830    7.0050 H   0  0  0  0  0
  1  2  2  0  0  0
  1  3  1  0  0  0
  1  4  1  0  0  0
  3  5  1  0  0  0
  3  6  1  0  0  0
  3  7  1  0  0  0
  4  8  1  0  0  0
  4  9  1  0  0  0
  4 10  1  0  0  0
M  END
$$$$
