DMS_1_B_603
  -ISIS-            3D

 10  9  0  0  0  0  0  0  0  0  1 V2000
   24.1750   -9.2050  -37.9150 S   0  0  0  0  0
   25.5440   -8.5950  -37.7790 O   0  0  0  0  0
   24.4190  -10.9630  -38.0440 C   0  0  0  0  0
   23.6800   -8.9120  -39.6080 C   0  0  0  0  0
   23.4592  -11.4583  -38.2973 H   0  0  0  0  0
   24.7784  -11.3550  -37.0705 H   0  0  0  0  0
   25.1716  -11.1923  -38.8257 H   0  0  0  0  0
   22.7398   -9.4596  -39.8243 H   0  0  0  0  0
   24.4738   -9.2484  -40.3057 H   0  0  0  0  0
   23.5051   -7.8266  -39.7549 H   0  0  0  0  0
  1  2  2  0  0  0
  1  3  1  0  0  0
  1  4  1  0  0  0
  3  5  1  0  0  0
  3  6  1  0  0  0
  3  7  1  0  0  0
  4  8  1  0  0  0
  4  9  1  0  0  0
  4 10  1  0  0  0
M  END
$$$$
