APR_1_A_401
  -ISIS-            3D

 58 61  0  0  0  0  0  0  0  0  1 V2000
    7.6680    0.3040  -11.2710 N   0  0  0  0  0
    8.2150   -0.3610  -10.2450 C   0  0  0  0  0
    8.1430   -1.6560   -9.9460 N   0  0  0  0  0
    7.3980   -2.3080  -10.8520 C   0  0  0  0  0
    6.7720   -1.7680  -11.9550 C   0  0  0  0  0
    6.9220   -0.3850  -12.1670 C   0  0  0  0  0
    6.3760    0.2710  -13.1870 N   0  0  0  0  0
    6.0940   -2.7600  -12.6540 N   0  0  0  0  0
    6.3190   -3.8600  -11.9730 C   0  0  0  0  0
    7.1050   -3.6450  -10.8680 N   0  0  0  0  0
    7.5540   -4.6280   -9.8890 C   0  0  0  0  0
    6.8260   -5.9640   -9.9850 C   0  0  0  0  0
    5.6290   -5.9620   -9.2370 O   0  0  0  0  0
    7.8800   -6.9160   -9.4140 C   0  0  0  0  0
    7.8550   -6.9290   -7.9930 O   0  0  0  0  0
    8.9150   -4.9010  -10.1360 O   0  0  0  0  0
    9.1880   -6.3140   -9.9440 C   0  0  0  0  0
    9.7090   -6.8960  -11.2350 C   0  0  0  0  0
    8.6290   -7.5720  -11.9270 O   0  0  0  0  0
    8.7110   -7.7160  -13.5220 P   0  0  0  0  0
    8.8500   -6.3620  -14.1360 O   0  0  0  0  0
    7.6030   -8.5970  -13.9970 O   0  0  0  0  0
   10.1000   -8.5020  -13.6880 O   0  0  0  0  0
   10.4750  -10.0610  -13.6370 P   0  0  0  0  0
    9.7230  -10.6970  -12.5150 O   0  0  0  0  0
   11.9610  -10.1980  -13.6610 O   0  0  0  0  0
    9.8720  -10.5660  -15.0350 O   0  0  0  0  0
   10.6130  -10.2870  -16.2500 C   0  0  0  0  0
    8.6130   -9.5450  -17.3680 O   0  0  0  0  0
    8.1830   -7.4880  -18.3290 O   0  0  0  0  0
    8.5250   -8.8010  -18.5810 C   0  0  0  0  0
    9.9670   -8.6650  -20.5940 O   0  0  0  0  0
    9.9220   -8.8880  -19.2000 C   0  0  0  0  0
    9.9090  -11.2760  -19.7450 O   0  0  0  0  0
   10.3630  -10.2970  -18.8200 C   0  0  0  0  0
    9.7100  -10.4870  -17.4430 C   0  0  0  0  0
    8.8118    0.2531   -9.5486 H   0  0  0  0  0
    5.9362   -4.8502  -12.2441 H   0  0  0  0  0
    7.4472   -4.2141   -8.8631 H   0  0  0  0  0
    6.6267   -6.2656  -11.0315 H   0  0  0  0  0
    4.9916   -5.4189   -9.6814 H   0  0  0  0  0
    7.7237   -7.9532   -9.7754 H   0  0  0  0  0
    6.9402   -6.9141   -7.7350 H   0  0  0  0  0
    9.9803   -6.4138   -9.1711 H   0  0  0  0  0
   10.5034   -7.6410  -11.0166 H   0  0  0  0  0
   10.1690   -6.1043  -11.8618 H   0  0  0  0  0
   11.4853  -10.9711  -16.3123 H   0  0  0  0  0
   10.9995   -9.2460  -16.2418 H   0  0  0  0  0
    8.7347   -7.1380  -17.6424 H   0  0  0  0  0
    7.7736   -9.2688  -19.2467 H   0  0  0  0  0
    9.4767   -9.3643  -21.0093 H   0  0  0  0  0
   10.5947   -8.1593  -18.7002 H   0  0  0  0  0
   10.6056  -11.4499  -20.3644 H   0  0  0  0  0
   11.4697  -10.3478  -18.7335 H   0  0  0  0  0
    9.2959  -11.5174  -17.3889 H   0  0  0  0  0
    5.8194   -0.2942  -13.8419 H   0  0  0  0  0
    6.5632    1.2807  -13.2238 H   0  0  0  0  0
    8.9257   -6.4563  -15.2612 H   0  0  0  0  0
  1  2  2  0  0  0
  1  6  1  0  0  0
  2  3  1  0  0  0
  2 37  1  0  0  0
  3  4  2  0  0  0
  4  5  1  0  0  0
  4 10  1  0  0  0
  5  6  2  0  0  0
  5  8  1  0  0  0
  6  7  1  0  0  0
  7 56  1  0  0  0
  7 57  1  0  0  0
  8  9  2  0  0  0
  9 10  1  0  0  0
  9 38  1  0  0  0
 10 11  1  0  0  0
 11 12  1  0  0  0
 11 16  1  0  0  0
 11 39  1  0  0  0
 12 13  1  0  0  0
 12 14  1  0  0  0
 12 40  1  0  0  0
 13 41  1  0  0  0
 14 15  1  0  0  0
 14 17  1  0  0  0
 14 42  1  0  0  0
 15 43  1  0  0  0
 16 17  1  0  0  0
 17 18  1  0  0  0
 17 44  1  0  0  0
 18 19  1  0  0  0
 18 45  1  0  0  0
 18 46  1  0  0  0
 19 20  1  0  0  0
 20 21  1  0  0  0
 20 22  2  0  0  0
 20 23  1  0  0  0
 23 24  1  0  0  0
 24 25  2  0  0  0
 24 26  2  0  0  0
 24 27  1  0  0  0
 27 28  1  0  0  0
 28 36  1  0  0  0
 28 47  1  0  0  0
 28 48  1  0  0  0
 29 31  1  0  0  0
 29 36  1  0  0  0
 30 31  1  0  0  0
 30 49  1  0  0  0
 31 33  1  0  0  0
 31 50  1  0  0  0
 32 33  1  0  0  0
 32 51  1  0  0  0
 33 35  1  0  0  0
 33 52  1  0  0  0
 34 35  1  0  0  0
 34 53  1  0  0  0
 35 36  1  0  0  0
 35 54  1  0  0  0
 36 55  1  0  0  0
 21 58  1  0  0  0
M  END
$$$$
