DMS_1_A_601
  -ISIS-            3D

 10  9  0  0  0  0  0  0  0  0  1 V2000
    6.5220    4.0700  -11.4700 S   0  0  0  0  0
    6.0930    4.1870  -12.8850 O   0  0  0  0  0
    5.1550    3.2750  -10.6700 C   0  0  0  0  0
    7.6930    2.7280  -11.4200 C   0  0  0  0  0
    5.4340    3.0053   -9.6308 H   0  0  0  0  0
    4.8625    2.3584  -11.2221 H   0  0  0  0  0
    4.2913    3.9703  -10.6395 H   0  0  0  0  0
    7.9298    2.4768  -10.3658 H   0  0  0  0  0
    8.6262    3.0364  -11.9343 H   0  0  0  0  0
    7.2773    1.8341  -11.9285 H   0  0  0  0  0
  1  2  2  0  0  0
  1  3  1  0  0  0
  1  4  1  0  0  0
  3  5  1  0  0  0
  3  6  1  0  0  0
  3  7  1  0  0  0
  4  8  1  0  0  0
  4  9  1  0  0  0
  4 10  1  0  0  0
M  END
$$$$
