DMS_1_B_601
  -ISIS-            3D

 10  9  0  0  0  0  0  0  0  0  1 V2000
   -0.8110  -11.8230  -18.3860 S   0  0  0  0  0
   -0.9910  -13.3190  -18.5000 O   0  0  0  0  0
    0.0970  -11.2680  -19.8160 C   0  0  0  0  0
    0.4360  -11.5660  -17.1410 C   0  0  0  0  0
    0.3576  -10.1959  -19.7017 H   0  0  0  0  0
   -0.5331  -11.3912  -20.7205 H   0  0  0  0  0
    1.0248  -11.8641  -19.9360 H   0  0  0  0  0
    0.6958  -10.4890  -17.0874 H   0  0  0  0  0
    1.3453  -12.1544  -17.3811 H   0  0  0  0  0
    0.0433  -11.8907  -16.1557 H   0  0  0  0  0
  1  2  2  0  0  0
  1  3  1  0  0  0
  1  4  1  0  0  0
  3  5  1  0  0  0
  3  6  1  0  0  0
  3  7  1  0  0  0
  4  8  1  0  0  0
  4  9  1  0  0  0
  4 10  1  0  0  0
M  END
$$$$
