DMS_2_A_402
  -ISIS-            3D

 10  9  0  0  0  0  0  0  0  0  1 V2000
   -7.2220  -28.0060  -22.0720 S   0  0  0  0  0
   -7.5870  -28.2570  -20.6470 O   0  0  0  0  0
   -6.8680  -26.2370  -22.2770 C   0  0  0  0  0
   -5.5800  -28.7190  -22.3780 C   0  0  0  0  0
   -6.5150  -26.0474  -23.3113 H   0  0  0  0  0
   -6.0874  -25.9235  -21.5538 H   0  0  0  0  0
   -7.7943  -25.6550  -22.0941 H   0  0  0  0  0
   -5.2558  -28.4726  -23.4097 H   0  0  0  0  0
   -5.6328  -29.8211  -22.2645 H   0  0  0  0  0
   -4.8503  -28.3085  -21.6503 H   0  0  0  0  0
  1  2  2  0  0  0
  1  3  1  0  0  0
  1  4  1  0  0  0
  3  5  1  0  0  0
  3  6  1  0  0  0
  3  7  1  0  0  0
  4  8  1  0  0  0
  4  9  1  0  0  0
  4 10  1  0  0  0
M  END
$$$$
