S89_2_A_307
  -ISIS-            3D

 60 62  0  0  0  0  0  0  0  0  1 V2000
  -30.2680    1.1700   28.7480 C   0  0  0  0  0
  -29.1900    1.1720   29.3370 O   0  0  0  0  0
  -30.6670    2.2940   27.8040 C   0  0  0  0  0
  -30.6470    3.6520   28.4750 C   0  0  0  0  0
  -30.5510    4.8060   27.5030 C   0  0  0  0  0
  -30.2730    4.6000   26.1530 C   0  0  0  0  0
  -30.2010    5.7020   25.3010 C   0  0  0  0  0
  -30.3850    7.0020   25.7790 C   0  0  0  0  0
  -30.6610    7.2030   27.1270 C   0  0  0  0  0
  -30.7390    6.1080   27.9910 C   0  0  0  0  0
  -31.1580    0.1720   28.8950 N   0  0  0  0  0
  -30.8230   -0.9730   29.7340 C   0  0  0  0  0
  -30.2470   -1.9350   28.7370 C   0  0  0  0  0
  -30.9230   -2.8660   28.2960 O   0  0  0  0  0
  -32.1240   -1.5010   30.3100 C   0  0  0  0  0
  -32.3720   -0.7340   31.5730 C   0  0  0  0  0
  -31.6940   -1.0860   32.7430 C   0  0  0  0  0
  -33.2810    0.3370   31.5590 C   0  0  0  0  0
  -31.9220   -0.3670   33.9090 C   0  0  0  0  0
  -33.5280    1.0550   32.7240 C   0  0  0  0  0
  -32.8440    0.6910   33.8930 C   0  0  0  0  0
  -28.9930   -1.6410   28.3540 N   0  0  0  0  0
  -28.2320   -2.3680   27.3380 C   0  0  0  0  0
  -27.9250   -3.8170   27.6960 C   0  0  0  0  0
  -27.4550   -4.5450   26.8080 O   0  0  0  0  0
  -26.9300   -1.5400   27.2220 C   0  0  0  0  0
  -26.9390   -0.1830   26.5210 C   0  0  0  0  0
  -25.7320    0.5500   26.5210 C   0  0  0  0  0
  -28.0620    0.3330   25.8650 C   0  0  0  0  0
  -25.6520    1.7800   25.8640 C   0  0  0  0  0
  -27.9960    1.5800   25.2210 C   0  0  0  0  0
  -26.7850    2.2940   25.2220 C   0  0  0  0  0
  -31.6563    2.1126   27.3267 H   0  0  0  0  0
  -29.9068    2.2466   26.9983 H   0  0  0  0  0
  -29.7730    3.7181   29.1632 H   0  0  0  0  0
  -31.5586    3.7632   29.1060 H   0  0  0  0  0
  -30.1154    3.6092   25.7090 H   0  0  0  0  0
  -29.9897    5.5463   24.2287 H   0  0  0  0  0
  -30.3162    7.8619   25.0913 H   0  0  0  0  0
  -30.8139    8.2247   27.5144 H   0  0  0  0  0
  -30.9515    6.2741   29.0609 H   0  0  0  0  0
  -32.0559    0.2054   28.3956 H   0  0  0  0  0
  -30.0853   -0.7525   30.5388 H   0  0  0  0  0
  -32.0223   -2.5791   30.5732 H   0  0  0  0  0
  -32.9758   -1.4299   29.5979 H   0  0  0  0  0
  -30.9794   -1.9266   32.7510 H   0  0  0  0  0
  -33.8075    0.6138   30.6300 H   0  0  0  0  0
  -31.3902   -0.6276   34.8397 H   0  0  0  0  0
  -34.2447    1.8933   32.7299 H   0  0  0  0  0
  -33.0322    1.2541   34.8235 H   0  0  0  0  0
  -28.5670   -0.7988   28.7818 H   0  0  0  0  0
  -28.7661   -2.3647   26.3595 H   0  0  0  0  0
  -28.1059   -4.2039   28.7271 H   0  0  0  0  0
  -26.1969   -2.1626   26.6560 H   0  0  0  0  0
  -26.4806   -1.4197   28.2355 H   0  0  0  0  0
  -24.8395    0.1514   27.0329 H   0  0  0  0  0
  -29.0134   -0.2225   25.8429 H   0  0  0  0  0
  -24.7049    2.3457   25.8558 H   0  0  0  0  0
  -28.8807    1.9878   24.7052 H   0  0  0  0  0
  -26.7271    3.2697   24.7098 H   0  0  0  0  0
  1  2  2  0  0  0
  1  3  1  0  0  0
  1 11  1  0  0  0
  3  4  1  0  0  0
  3 33  1  0  0  0
  3 34  1  0  0  0
  4  5  1  0  0  0
  4 35  1  0  0  0
  4 36  1  0  0  0
  5  6  2  0  0  0
  5 10  1  0  0  0
  6  7  1  0  0  0
  6 37  1  0  0  0
  7  8  2  0  0  0
  7 38  1  0  0  0
  8  9  1  0  0  0
  8 39  1  0  0  0
  9 10  2  0  0  0
  9 40  1  0  0  0
 10 41  1  0  0  0
 11 12  1  0  0  0
 11 42  1  0  0  0
 12 13  1  0  0  0
 12 15  1  0  0  0
 12 43  1  0  0  0
 13 14  2  0  0  0
 13 22  1  0  0  0
 15 16  1  0  0  0
 15 44  1  0  0  0
 15 45  1  0  0  0
 16 17  2  0  0  0
 16 18  1  0  0  0
 17 19  1  0  0  0
 17 46  1  0  0  0
 18 20  2  0  0  0
 18 47  1  0  0  0
 19 21  2  0  0  0
 19 48  1  0  0  0
 20 21  1  0  0  0
 20 49  1  0  0  0
 21 50  1  0  0  0
 22 23  1  0  0  0
 22 51  1  0  0  0
 23 24  1  0  0  0
 23 26  1  0  0  0
 23 52  1  0  0  0
 24 25  2  0  0  0
 24 53  1  0  0  0
 26 27  1  0  0  0
 26 54  1  0  0  0
 26 55  1  0  0  0
 27 28  2  0  0  0
 27 29  1  0  0  0
 28 30  1  0  0  0
 28 56  1  0  0  0
 29 31  2  0  0  0
 29 57  1  0  0  0
 30 32  2  0  0  0
 30 58  1  0  0  0
 31 32  1  0  0  0
 31 59  1  0  0  0
 32 60  1  0  0  0
M  END
$$$$
