DMS_2_A_405
  -ISIS-            3D

 10  9  0  0  0  0  0  0  0  0  1 V2000
   -2.0550  -18.9200   -8.5320 S   0  0  0  0  0
   -1.2640  -18.0350   -9.4580 O   0  0  0  0  0
   -3.7610  -18.7370   -8.9870 C   0  0  0  0  0
   -2.1170  -18.0700   -7.0040 C   0  0  0  0  0
   -4.4060  -19.2532   -8.2468 H   0  0  0  0  0
   -3.9247  -19.1944   -9.9842 H   0  0  0  0  0
   -4.0367  -17.6635   -9.0332 H   0  0  0  0  0
   -2.8002  -18.5955   -6.3058 H   0  0  0  0  0
   -2.4708  -17.0288   -7.1505 H   0  0  0  0  0
   -1.1027  -18.0442   -6.5555 H   0  0  0  0  0
  1  2  2  0  0  0
  1  3  1  0  0  0
  1  4  1  0  0  0
  3  5  1  0  0  0
  3  6  1  0  0  0
  3  7  1  0  0  0
  4  8  1  0  0  0
  4  9  1  0  0  0
  4 10  1  0  0  0
M  END
$$$$
