DMS_1_A_401
  -ISIS-            3D

 10  9  0  0  0  0  0  0  0  0  1 V2000
    7.0760  -28.0680   21.5620 S   0  0  0  0  0
    6.3000  -27.2410   20.5590 O   0  0  0  0  0
    7.9010  -26.9460   22.5890 C   0  0  0  0  0
    5.8690  -28.6400   22.7210 C   0  0  0  0  0
    8.3668  -27.4819   23.4410 H   0  0  0  0  0
    7.1981  -26.1808   22.9782 H   0  0  0  0  0
    8.7001  -26.4360   22.0131 H   0  0  0  0  0
    6.3718  -29.1415   23.5730 H   0  0  0  0  0
    5.1986  -29.3700   22.2229 H   0  0  0  0  0
    5.2609  -27.7924   23.0988 H   0  0  0  0  0
  1  2  2  0  0  0
  1  3  1  0  0  0
  1  4  1  0  0  0
  3  5  1  0  0  0
  3  6  1  0  0  0
  3  7  1  0  0  0
  4  8  1  0  0  0
  4  9  1  0  0  0
  4 10  1  0  0  0
M  END
$$$$
