DMS_1_A_401
  -ISIS-            3D

 10  9  0  0  0  0  0  0  0  0  1 V2000
    7.2350  -28.2870   21.3460 S   0  0  0  0  0
    7.8720  -27.3160   22.2200 O   0  0  0  0  0
    5.9320  -29.0180   22.3170 C   0  0  0  0  0
    6.2660  -27.3960   20.1610 C   0  0  0  0  0
    5.3244  -29.6930   21.6801 H   0  0  0  0  0
    5.2805  -28.2269   22.7420 H   0  0  0  0  0
    6.3754  -29.6074   23.1456 H   0  0  0  0  0
    5.6597  -28.1061   19.5622 H   0  0  0  0  0
    6.9390  -26.8350   19.4807 H   0  0  0  0  0
    5.5929  -26.6801   20.6759 H   0  0  0  0  0
  1  2  2  0  0  0
  1  3  1  0  0  0
  1  4  1  0  0  0
  3  5  1  0  0  0
  3  6  1  0  0  0
  3  7  1  0  0  0
  4  8  1  0  0  0
  4  9  1  0  0  0
  4 10  1  0  0  0
M  END
$$$$
