DMS_1_A_403
  -ISIS-            3D

 10  9  0  0  0  0  0  0  0  0  1 V2000
    2.4380  -19.0230    8.2860 S   0  0  0  0  0
    3.7160  -18.6740    8.9420 O   0  0  0  0  0
    1.2330  -18.0000    9.0710 C   0  0  0  0  0
    1.9730  -20.5500    9.0630 C   0  0  0  0  0
    0.2139  -18.3224    8.7749 H   0  0  0  0  0
    1.3800  -16.9480    8.7515 H   0  0  0  0  0
    1.3310  -18.0570   10.1748 H   0  0  0  0  0
    0.9373  -20.8201    8.7723 H   0  0  0  0  0
    2.0345  -20.4606   10.1673 H   0  0  0  0  0
    2.6583  -21.3555    8.7283 H   0  0  0  0  0
  1  2  2  0  0  0
  1  3  1  0  0  0
  1  4  1  0  0  0
  3  5  1  0  0  0
  3  6  1  0  0  0
  3  7  1  0  0  0
  4  8  1  0  0  0
  4  9  1  0  0  0
  4 10  1  0  0  0
M  END
$$$$
