ZU3_1_A_501
  -ISIS-            3D

 93 94  0  0  0  0  0  0  0  0  1 V2000
   18.6600    3.4790   20.0370 C   0  0  0  0  0
   19.7990    2.9160   20.0120 O   0  0  0  0  0
   18.2660    4.3990   19.0560 O   0  0  0  0  0
   19.3390    4.8390   18.1670 C   0  0  0  0  0
   19.9970    6.0550   18.7750 C   0  0  0  0  0
   19.3500    7.3900   18.6490 C   0  0  0  0  0
   19.9390    8.4700   19.1960 C   0  0  0  0  0
   21.2410    8.3390   19.9340 C   0  0  0  0  0
   21.8400    7.1220   20.0550 C   0  0  0  0  0
   21.1940    5.9250   19.4490 C   0  0  0  0  0
   17.7240    3.1830   21.0410 N   0  0  0  0  0
   18.0030    2.2150   22.0920 C   0  0  0  0  0
   17.6460    2.8140   23.4540 C   0  0  0  0  0
   18.2720    4.1420   23.6240 N   0  0  0  0  0
   19.6470    4.2130   24.0990 C   0  0  0  0  0
   17.2620    0.9280   21.7820 C   0  0  0  0  0
   15.9720    0.9030   21.7850 O   0  0  0  0  0
   20.2660    3.1440   24.3540 O   0  0  0  0  0
   20.3550    5.5430   24.3040 C   0  0  0  0  0
   20.8240    5.6600   25.7600 C   0  0  0  0  0
   19.4070    6.7330   23.9340 C   0  0  0  0  0
   21.5430    5.6270   23.3500 C   0  0  0  0  0
   18.0140   -0.2830   21.5650 N   0  0  0  0  0
   17.3210   -1.5500   21.3580 C   0  0  0  0  0
   16.5150   -1.8760   22.5960 C   0  0  0  0  0
   16.9790   -1.5390   23.7230 O   0  0  0  0  0
   18.3680   -2.6430   20.9160 C   0  0  0  0  0
   19.1760   -2.4540   19.5860 C   0  0  0  0  0
   20.0980   -3.6290   19.1910 C   0  0  0  0  0
   18.2010   -2.2060   18.4160 C   0  0  0  0  0
   15.2530   -2.5410   22.5430 N   0  0  0  0  0
   14.5130   -2.8160   23.7590 C   0  0  0  0  0
   13.2400   -1.8030   23.8120 C   0  0  0  0  0
   13.5660   -0.3700   24.2540 C   0  0  0  0  0
   14.1310   -4.2750   23.6840 C   0  0  0  0  0
   12.3400    0.4760   24.3300 C   0  0  0  0  0
   11.4050    0.4110   23.5110 O   0  0  0  0  0
   12.3810    1.3650   25.4460 N   0  0  0  0  0
   13.6310    1.2240   26.2090 C   0  0  0  0  0
   14.1780   -0.1600   25.7240 C   0  0  0  0  0
   15.4240   -5.1710   23.7600 C   0  0  0  0  0
   15.2030   -6.3770   24.6720 C   0  0  0  0  0
   16.3600   -7.3390   24.9940 C   0  0  0  0  0
   14.1000   -6.6180   25.1140 O   0  0  0  0  0
   18.9034    5.1190   17.1855 H   0  0  0  0  0
   20.0763    4.0411   17.9484 H   0  0  0  0  0
   18.3922    7.4848   18.1102 H   0  0  0  0  0
   19.4729    9.4664   19.1108 H   0  0  0  0  0
   21.7029    9.2387   20.3744 H   0  0  0  0  0
   22.7963    7.0108   20.5931 H   0  0  0  0  0
   21.6867    4.9439   19.5533 H   0  0  0  0  0
   16.8061    3.6447   21.0019 H   0  0  0  0  0
   19.0928    1.9792   22.1179 H   0  0  0  0  0
   17.9464    2.1116   24.2646 H   0  0  0  0  0
   16.5383    2.9096   23.5326 H   0  0  0  0  0
   17.7400    4.9915   23.4018 H   0  0  0  0  0
   21.3334    6.6308   25.9512 H   0  0  0  0  0
   21.5427    4.8557   26.0338 H   0  0  0  0  0
   19.9694    5.5930   26.4699 H   0  0  0  0  0
   19.9184    7.7120   24.0719 H   0  0  0  0  0
   18.5009    6.7579   24.5797 H   0  0  0  0  0
   19.0749    6.6956   22.8721 H   0  0  0  0  0
   22.0594    6.6110   23.4095 H   0  0  0  0  0
   21.2278    5.4805   22.2937 H   0  0  0  0  0
   22.3068    4.8477   23.5686 H   0  0  0  0  0
   19.0413   -0.2412   21.5751 H   0  0  0  0  0
   16.5883   -1.4331   20.5251 H   0  0  0  0  0
   17.8212   -3.6126   20.8441 H   0  0  0  0  0
   19.0976   -2.7770   21.7487 H   0  0  0  0  0
   19.8165   -1.5454   19.6992 H   0  0  0  0  0
   20.6694   -3.4144   18.2603 H   0  0  0  0  0
   19.5214   -4.5658   19.0225 H   0  0  0  0  0
   20.8432   -3.8405   19.9902 H   0  0  0  0  0
   18.7407   -2.1030   17.4481 H   0  0  0  0  0
   17.6190   -1.2678   18.5492 H   0  0  0  0  0
   17.4723   -3.0391   18.2994 H   0  0  0  0  0
   14.8633   -2.8046   21.6276 H   0  0  0  0  0
   15.1188   -2.6503   24.6794 H   0  0  0  0  0
   12.4948   -2.2269   24.5246 H   0  0  0  0  0
   12.7496   -1.7952   22.8114 H   0  0  0  0  0
   14.2595    0.0951   23.5159 H   0  0  0  0  0
   13.5541   -4.5014   22.7586 H   0  0  0  0  0
   13.4531   -4.4901   24.5400 H   0  0  0  0  0
   11.6168    2.0181   25.6592 H   0  0  0  0  0
   13.4627    1.2231   27.3090 H   0  0  0  0  0
   14.3510    2.0363   25.9604 H   0  0  0  0  0
   15.2903   -0.1840   25.7165 H   0  0  0  0  0
   13.8122   -0.9685   26.3978 H   0  0  0  0  0
   16.2824   -4.5874   24.1624 H   0  0  0  0  0
   15.7115   -5.5118   22.7396 H   0  0  0  0  0
   16.0278   -8.1643   25.6618 H   0  0  0  0  0
   17.1869   -6.7959   25.5023 H   0  0  0  0  0
   16.7611   -7.7907   24.0601 H   0  0  0  0  0
  1  2  2  0  0  0
  1  3  1  0  0  0
  1 11  1  0  0  0
  3  4  1  0  0  0
  4  5  1  0  0  0
  4 45  1  0  0  0
  4 46  1  0  0  0
  5  6  1  0  0  0
  5 10  1  0  0  0
  6  7  1  0  0  0
  6 47  1  0  0  0
  7  8  1  0  0  0
  7 48  1  0  0  0
  8  9  1  0  0  0
  8 49  1  0  0  0
  9 10  1  0  0  0
  9 50  1  0  0  0
 10 51  1  0  0  0
 11 12  1  0  0  0
 11 52  1  0  0  0
 12 13  1  0  0  0
 12 16  1  0  0  0
 12 53  1  0  0  0
 13 14  1  0  0  0
 13 54  1  0  0  0
 13 55  1  0  0  0
 14 15  1  0  0  0
 14 56  1  0  0  0
 15 18  2  0  0  0
 15 19  1  0  0  0
 16 17  2  0  0  0
 16 23  1  0  0  0
 19 20  1  0  0  0
 19 21  1  0  0  0
 19 22  1  0  0  0
 20 57  1  0  0  0
 20 58  1  0  0  0
 20 59  1  0  0  0
 21 60  1  0  0  0
 21 61  1  0  0  0
 21 62  1  0  0  0
 22 63  1  0  0  0
 22 64  1  0  0  0
 22 65  1  0  0  0
 23 24  1  0  0  0
 23 66  1  0  0  0
 24 25  1  0  0  0
 24 27  1  0  0  0
 24 67  1  0  0  0
 25 26  2  0  0  0
 25 31  1  0  0  0
 27 28  1  0  0  0
 27 68  1  0  0  0
 27 69  1  0  0  0
 28 29  1  0  0  0
 28 30  1  0  0  0
 28 70  1  0  0  0
 29 71  1  0  0  0
 29 72  1  0  0  0
 29 73  1  0  0  0
 30 74  1  0  0  0
 30 75  1  0  0  0
 30 76  1  0  0  0
 31 32  1  0  0  0
 31 77  1  0  0  0
 32 33  1  0  0  0
 32 35  1  0  0  0
 32 78  1  0  0  0
 33 34  1  0  0  0
 33 79  1  0  0  0
 33 80  1  0  0  0
 34 36  1  0  0  0
 34 40  1  0  0  0
 34 81  1  0  0  0
 35 41  1  0  0  0
 35 82  1  0  0  0
 35 83  1  0  0  0
 36 37  2  0  0  0
 36 38  1  0  0  0
 38 39  1  0  0  0
 38 84  1  0  0  0
 39 40  1  0  0  0
 39 85  1  0  0  0
 39 86  1  0  0  0
 40 87  1  0  0  0
 40 88  1  0  0  0
 41 42  1  0  0  0
 41 89  1  0  0  0
 41 90  1  0  0  0
 42 43  1  0  0  0
 42 44  2  0  0  0
 43 91  1  0  0  0
 43 92  1  0  0  0
 43 93  1  0  0  0
M  END
$$$$
