FUL_1_I_4
  -ISIS-            3D

 22 22  0  0  0  0  0  0  0  0  1 V2000
    7.4780    0.0900   26.8870 C   0  0  0  0  0
    6.7250    1.0120   25.9340 C   0  0  0  0  0
    6.2920    2.1690   26.6530 O   0  0  0  0  0
    7.5970    1.4450   24.7640 C   0  0  0  0  0
    6.7840    2.0650   23.7660 O   0  0  0  0  0
    8.2830    0.2380   24.1550 C   0  0  0  0  0
    7.2760   -0.6370   23.6420 O   0  0  0  0  0
    9.0490   -0.5020   25.2330 C   0  0  0  0  0
    9.8220   -1.6770   24.6530 C   0  0  0  0  0
    8.0970   -0.9780   26.1760 O   0  0  0  0  0
    6.7792   -0.3388   27.6346 H   0  0  0  0  0
    8.2464    0.6513   27.4585 H   0  0  0  0  0
    5.8338    0.4659   25.5529 H   0  0  0  0  0
    5.7902    2.6974   26.0447 H   0  0  0  0  0
    8.3661    2.1628   25.1259 H   0  0  0  0  0
    7.3178    2.6788   23.2788 H   0  0  0  0  0
    8.9673    0.5542   23.3393 H   0  0  0  0  0
    6.6692   -0.1009   23.1432 H   0  0  0  0  0
    9.7767    0.1798   25.7264 H   0  0  0  0  0
   10.3865   -2.2186   25.4435 H   0  0  0  0  0
   10.5641   -1.3470   23.8935 H   0  0  0  0  0
    9.1552   -2.4198   24.1637 H   0  0  0  0  0
  1  2  1  0  0  0
  1 10  1  0  0  0
  1 11  1  0  0  0
  1 12  1  0  0  0
  2  3  1  0  0  0
  2  4  1  0  0  0
  2 13  1  0  0  0
  3 14  1  0  0  0
  4  5  1  0  0  0
  4  6  1  0  0  0
  4 15  1  0  0  0
  5 16  1  0  0  0
  6  7  1  0  0  0
  6  8  1  0  0  0
  6 17  1  0  0  0
  7 18  1  0  0  0
  8  9  1  0  0  0
  8 10  1  0  0  0
  8 19  1  0  0  0
  9 20  1  0  0  0
  9 21  1  0  0  0
  9 22  1  0  0  0
M  END
$$$$
