DMS_1_A_505
  -ISIS-            3D

 10  9  0  0  0  0  0  0  0  0  1 V2000
  -24.4700   -9.7420   37.7930 S   0  0  0  0  0
  -24.0240   -8.8710   38.9260 O   0  0  0  0  0
  -26.2660   -9.9750   37.8740 C   0  0  0  0  0
  -23.9240  -11.4480   38.0890 C   0  0  0  0  0
  -26.5862  -10.6745   37.0750 H   0  0  0  0  0
  -26.7683   -8.9972   37.7261 H   0  0  0  0  0
  -26.5481  -10.3866   38.8647 H   0  0  0  0  0
  -24.3102  -12.1063   37.2842 H   0  0  0  0  0
  -24.3015  -11.7990   39.0712 H   0  0  0  0  0
  -22.8153  -11.4820   38.0881 H   0  0  0  0  0
  1  2  2  0  0  0
  1  3  1  0  0  0
  1  4  1  0  0  0
  3  5  1  0  0  0
  3  6  1  0  0  0
  3  7  1  0  0  0
  4  8  1  0  0  0
  4  9  1  0  0  0
  4 10  1  0  0  0
M  END
$$$$
