DMS_1_A_402
  -ISIS-            3D

 10  9  0  0  0  0  0  0  0  0  1 V2000
    6.1500   -1.0610   -6.2610 S   0  0  0  0  0
    7.1400   -0.8880   -7.3340 O   0  0  0  0  0
    7.0640   -0.9290   -4.7360 C   0  0  0  0  0
    5.8150   -2.7830   -6.1840 C   0  0  0  0  0
    6.4095   -1.1954   -3.8811 H   0  0  0  0  0
    7.4129    0.1161   -4.6074 H   0  0  0  0  0
    7.9443   -1.6042   -4.7525 H   0  0  0  0  0
    5.1893   -3.0071   -5.2960 H   0  0  0  0  0
    6.7597   -3.3617   -6.1237 H   0  0  0  0  0
    5.2626   -3.0919   -7.0950 H   0  0  0  0  0
  1  2  2  0  0  0
  1  3  1  0  0  0
  1  4  1  0  0  0
  3  5  1  0  0  0
  3  6  1  0  0  0
  3  7  1  0  0  0
  4  8  1  0  0  0
  4  9  1  0  0  0
  4 10  1  0  0  0
M  END
$$$$
