DMS_1_A_401
  -ISIS-            3D

 10  9  0  0  0  0  0  0  0  0  1 V2000
    6.9760  -28.1690   21.3750 S   0  0  0  0  0
    7.6910  -27.2480   22.2610 O   0  0  0  0  0
    5.7380  -28.9620   22.3670 C   0  0  0  0  0
    5.9120  -27.1730   20.3840 C   0  0  0  0  0
    5.0727  -29.5716   21.7220 H   0  0  0  0  0
    5.1345  -28.2060   22.9103 H   0  0  0  0  0
    6.2302  -29.6287   23.1042 H   0  0  0  0  0
    5.2416  -27.8205   19.7825 H   0  0  0  0  0
    6.5230  -26.5550   19.6948 H   0  0  0  0  0
    5.3009  -26.5027   21.0230 H   0  0  0  0  0
  1  2  2  0  0  0
  1  3  1  0  0  0
  1  4  1  0  0  0
  3  5  1  0  0  0
  3  6  1  0  0  0
  3  7  1  0  0  0
  4  8  1  0  0  0
  4  9  1  0  0  0
  4 10  1  0  0  0
M  END
$$$$
