DMS_1_A_407
  -ISIS-            3D

 10  9  0  0  0  0  0  0  0  0  1 V2000
   21.6540   14.4940    7.8600 S   0  0  0  0  0
   20.6400   14.1820    8.9180 O   0  0  0  0  0
   21.0870   13.8630    6.2550 C   0  0  0  0  0
   21.6920   16.2790    7.5100 C   0  0  0  0  0
   21.8208   14.1355    5.4692 H   0  0  0  0  0
   20.0974   14.2992    6.0086 H   0  0  0  0  0
   20.9996   12.7586    6.3067 H   0  0  0  0  0
   22.4106   16.4806    6.6894 H   0  0  0  0  0
   22.0146   16.8228    8.4212 H   0  0  0  0  0
   20.6804   16.6245    7.2138 H   0  0  0  0  0
  1  2  2  0  0  0
  1  3  1  0  0  0
  1  4  1  0  0  0
  3  5  1  0  0  0
  3  6  1  0  0  0
  3  7  1  0  0  0
  4  8  1  0  0  0
  4  9  1  0  0  0
  4 10  1  0  0  0
M  END
$$$$
