EDO_1_E_614
  -ISIS-            3D

 10  9  0  0  0  0  0  0  0  0  1 V2000
   65.8280   15.5960   19.6940 C   0  0  0  0  0
   66.2390   15.8290   21.0270 O   0  0  0  0  0
   65.0530   16.7220   19.0910 C   0  0  0  0  0
   64.8690   17.8710   19.9120 O   0  0  0  0  0
   65.2206   14.6658   19.6650 H   0  0  0  0  0
   66.7293   15.3930   19.0761 H   0  0  0  0  0
   66.7239   15.0733   21.3305 H   0  0  0  0  0
   64.0474   16.3598   18.7887 H   0  0  0  0  0
   65.5420   17.0514   18.1499 H   0  0  0  0  0
   65.2705   17.6713   20.7503 H   0  0  0  0  0
  1  2  1  0  0  0
  1  3  1  0  0  0
  1  5  1  0  0  0
  1  6  1  0  0  0
  2  7  1  0  0  0
  3  4  1  0  0  0
  3  8  1  0  0  0
  3  9  1  0  0  0
  4 10  1  0  0  0
M  END
$$$$
