EDO_1_E_604
  -ISIS-            3D

 10  9  0  0  0  0  0  0  0  0  1 V2000
   70.3160   23.2140   27.7820 C   0  0  0  0  0
   71.2360   24.2040   28.1550 O   0  0  0  0  0
   70.1630   23.1010   26.3270 C   0  0  0  0  0
   69.7730   21.8040   25.9320 O   0  0  0  0  0
   69.3371   23.3960   28.2742 H   0  0  0  0  0
   70.6885   22.2532   28.1961 H   0  0  0  0  0
   70.8264   25.0536   28.0560 H   0  0  0  0  0
   71.1161   23.3541   25.8142 H   0  0  0  0  0
   69.4126   23.8307   25.9581 H   0  0  0  0  0
   70.5299   21.2337   25.9672 H   0  0  0  0  0
  1  2  1  0  0  0
  1  3  1  0  0  0
  1  5  1  0  0  0
  1  6  1  0  0  0
  2  7  1  0  0  0
  3  4  1  0  0  0
  3  8  1  0  0  0
  3  9  1  0  0  0
  4 10  1  0  0  0
M  END
$$$$
