DMS_2_A_406
  -ISIS-            3D

 10  9  0  0  0  0  0  0  0  0  1 V2000
  -25.4020  -31.3740  -19.3820 S   0  0  0  0  0
  -24.2040  -30.7700  -18.7210 O   0  0  0  0  0
  -25.5870  -30.5550  -20.9480 C   0  0  0  0  0
  -24.8750  -32.9410  -19.9950 C   0  0  0  0  0
  -26.3724  -31.0601  -21.5467 H   0  0  0  0  0
  -24.6291  -30.5683  -21.5074 H   0  0  0  0  0
  -25.8899  -29.5019  -20.7765 H   0  0  0  0  0
  -25.6743  -33.3904  -20.6194 H   0  0  0  0  0
  -24.6669  -33.6181  -19.1416 H   0  0  0  0  0
  -23.9518  -32.8312  -20.6004 H   0  0  0  0  0
  1  2  2  0  0  0
  1  3  1  0  0  0
  1  4  1  0  0  0
  3  5  1  0  0  0
  3  6  1  0  0  0
  3  7  1  0  0  0
  4  8  1  0  0  0
  4  9  1  0  0  0
  4 10  1  0  0  0
M  END
$$$$
