4BY_1_A_201
  -ISIS-            3D

 21 22  0  0  0  0  0  0  0  0  1 V2000
   10.8630    2.3730   18.1110 C   0  0  0  0  0
   11.2130    2.6860   19.3420 N   0  0  0  0  0
   10.2720    3.4640   17.5010 C   0  0  0  0  0
   10.2650    4.4740   18.4700 C   0  0  0  0  0
   10.8580    3.9480   19.6030 C   0  0  0  0  0
   11.1230    1.0290   17.4660 C   0  0  0  0  0
    9.7920    5.7890   18.4550 C   0  0  0  0  0
   11.1530    0.9200   16.2180 O   0  0  0  0  0
   10.9960    4.7340   20.7500 C   0  0  0  0  0
   11.3320    0.0410   18.2060 O   0  0  0  0  0
    9.9320    6.5670   19.5980 C   0  0  0  0  0
   10.5330    6.0350   20.7370 C   0  0  0  0  0
    9.4200    8.0080   19.6250 C   0  0  0  0  0
   11.8109    1.8831   20.1979 H   0  0  0  0  0
    9.8869    3.5317   16.4750 H   0  0  0  0  0
    9.3164    6.1978   17.5486 H   0  0  0  0  0
   11.4701    4.3155   21.6531 H   0  0  0  0  0
   10.6429    6.6530   21.6442 H   0  0  0  0  0
    9.6021    8.5021   20.6044 H   0  0  0  0  0
    8.3246    8.0430   19.4331 H   0  0  0  0  0
    9.9220    8.6215   18.8443 H   0  0  0  0  0
  1  2  2  0  0  0
  1  3  1  0  0  0
  1  6  1  0  0  0
  2  5  1  0  0  0
  2 14  1  0  0  0
  3  4  2  0  0  0
  3 15  1  0  0  0
  4  5  1  0  0  0
  4  7  1  0  0  0
  5  9  2  0  0  0
  6  8  2  0  0  0
  6 10  2  0  0  0
  7 11  1  0  0  0
  7 16  1  0  0  0
  9 12  1  0  0  0
  9 17  1  0  0  0
 11 12  1  0  0  0
 11 13  1  0  0  0
 12 18  1  0  0  0
 13 19  1  0  0  0
 13 20  1  0  0  0
 13 21  1  0  0  0
M  END
$$$$
