XP1_1_A_2307
  -ISIS-            3D

 22 22  0  0  0  0  0  0  0  0  1 V2000
  -19.2470  -40.3620  -20.4190 C   0  0  0  0  0
  -18.6060  -41.2770  -19.4380 N   0  0  0  0  0
  -18.8750  -41.0490  -18.0070 C   0  0  0  0  0
  -17.7690  -42.3060  -19.7860 C   0  0  0  0  0
  -17.4520  -42.5650  -21.1180 C   0  0  0  0  0
  -16.5990  -43.6260  -21.4510 C   0  0  0  0  0
  -16.0400  -44.4240  -20.4350 C   0  0  0  0  0
  -15.1010  -45.5650  -20.8110 C   0  0  0  0  0
  -14.6400  -46.3000  -19.9350 O   0  0  0  0  0
  -16.3300  -44.1800  -19.0840 C   0  0  0  0  0
  -17.2040  -43.1270  -18.7800 C   0  0  0  0  0
  -19.8850  -40.9211  -21.1389 H   0  0  0  0  0
  -18.4870  -39.7937  -21.0000 H   0  0  0  0  0
  -19.9033  -39.6104  -19.9288 H   0  0  0  0  0
  -19.3727  -41.9238  -17.5321 H   0  0  0  0  0
  -19.5577  -40.1862  -17.8467 H   0  0  0  0  0
  -17.9463  -40.8124  -17.4412 H   0  0  0  0  0
  -17.8674  -41.9474  -21.9296 H   0  0  0  0  0
  -16.3664  -43.8248  -22.5107 H   0  0  0  0  0
  -14.8599  -45.7330  -21.8874 H   0  0  0  0  0
  -15.8931  -44.7968  -18.2820 H   0  0  0  0  0
  -17.4261  -42.9639  -17.7148 H   0  0  0  0  0
  1  2  1  0  0  0
  1 12  1  0  0  0
  1 13  1  0  0  0
  1 14  1  0  0  0
  2  3  1  0  0  0
  2  4  1  0  0  0
  3 15  1  0  0  0
  3 16  1  0  0  0
  3 17  1  0  0  0
  4  5  2  0  0  0
  4 11  1  0  0  0
  5  6  1  0  0  0
  5 18  1  0  0  0
  6  7  2  0  0  0
  6 19  1  0  0  0
  7  8  1  0  0  0
  7 10  1  0  0  0
  8  9  2  0  0  0
  8 20  1  0  0  0
 10 11  2  0  0  0
 10 21  1  0  0  0
 11 22  1  0  0  0
M  END
$$$$
