XP1_2_A_2307
  -ISIS-            3D

 22 22  0  0  0  0  0  0  0  0  1 V2000
   32.4410  -40.3620  -31.3440 C   0  0  0  0  0
   31.8000  -41.2770  -32.3250 N   0  0  0  0  0
   32.0690  -41.0490  -33.7560 C   0  0  0  0  0
   30.9630  -42.3060  -31.9770 C   0  0  0  0  0
   30.6460  -42.5650  -30.6450 C   0  0  0  0  0
   29.7930  -43.6260  -30.3120 C   0  0  0  0  0
   29.2340  -44.4240  -31.3280 C   0  0  0  0  0
   28.2950  -45.5650  -30.9520 C   0  0  0  0  0
   27.8340  -46.3000  -31.8280 O   0  0  0  0  0
   29.5240  -44.1800  -32.6790 C   0  0  0  0  0
   30.3980  -43.1270  -32.9830 C   0  0  0  0  0
   33.0792  -40.9211  -30.6242 H   0  0  0  0  0
   31.6810  -39.7939  -30.7628 H   0  0  0  0  0
   33.0971  -39.6103  -31.8342 H   0  0  0  0  0
   32.5661  -41.9240  -34.2310 H   0  0  0  0  0
   32.7522  -40.1866  -33.9163 H   0  0  0  0  0
   31.1404  -40.8118  -34.3217 H   0  0  0  0  0
   31.0614  -41.9474  -29.8334 H   0  0  0  0  0
   29.5604  -43.8248  -29.2523 H   0  0  0  0  0
   28.0539  -45.7330  -29.8756 H   0  0  0  0  0
   29.0871  -44.7968  -33.4810 H   0  0  0  0  0
   30.6201  -42.9639  -34.0482 H   0  0  0  0  0
  1  2  1  0  0  0
  1 12  1  0  0  0
  1 13  1  0  0  0
  1 14  1  0  0  0
  2  3  1  0  0  0
  2  4  1  0  0  0
  3 15  1  0  0  0
  3 16  1  0  0  0
  3 17  1  0  0  0
  4  5  2  0  0  0
  4 11  1  0  0  0
  5  6  1  0  0  0
  5 18  1  0  0  0
  6  7  2  0  0  0
  6 19  1  0  0  0
  7  8  1  0  0  0
  7 10  1  0  0  0
  8  9  2  0  0  0
  8 20  1  0  0  0
 10 11  2  0  0  0
 10 21  1  0  0  0
 11 22  1  0  0  0
M  END
$$$$
