DMS_2_A_403
  -ISIS-            3D

 10  9  0  0  0  0  0  0  0  0  1 V2000
  -21.7300   14.6310   -7.8270 S   0  0  0  0  0
  -23.0800   14.0140   -7.6250 O   0  0  0  0  0
  -20.6430   14.0500   -6.4950 C   0  0  0  0  0
  -20.9090   13.8280   -9.2250 C   0  0  0  0  0
  -19.6128   14.4238   -6.6662 H   0  0  0  0  0
  -20.6378   12.9410   -6.4672 H   0  0  0  0  0
  -21.0150   14.4392   -5.5252 H   0  0  0  0  0
  -19.8729   14.2126   -9.3192 H   0  0  0  0  0
  -21.4677   14.0560  -10.1557 H   0  0  0  0  0
  -20.8866   12.7296   -9.0712 H   0  0  0  0  0
  1  2  2  0  0  0
  1  3  1  0  0  0
  1  4  1  0  0  0
  3  5  1  0  0  0
  3  6  1  0  0  0
  3  7  1  0  0  0
  4  8  1  0  0  0
  4  9  1  0  0  0
  4 10  1  0  0  0
M  END
$$$$
