EDO_1_H_303
  -ISIS-            3D

 10  9  0  0  0  0  0  0  0  0  1 V2000
    2.6750   -8.4490  -18.4710 C   0  0  0  0  0
    3.3510   -8.6240  -19.7300 O   0  0  0  0  0
    2.5950   -6.9700  -18.1110 C   0  0  0  0  0
    1.8300   -6.2910  -19.1090 O   0  0  0  0  0
    3.2054   -9.0152  -17.6762 H   0  0  0  0  0
    1.6561   -8.8823  -18.5487 H   0  0  0  0  0
    4.2802   -8.7105  -19.5628 H   0  0  0  0  0
    3.6073   -6.5196  -18.0439 H   0  0  0  0  0
    2.1043   -6.8333  -17.1254 H   0  0  0  0  0
    2.1432   -6.6027  -19.9505 H   0  0  0  0  0
  1  2  1  0  0  0
  1  3  1  0  0  0
  1  5  1  0  0  0
  1  6  1  0  0  0
  2  7  1  0  0  0
  3  4  1  0  0  0
  3  8  1  0  0  0
  3  9  1  0  0  0
  4 10  1  0  0  0
M  END
$$$$
