EDO_2_A_309
  -ISIS-            3D

 10  9  0  0  0  0  0  0  0  0  1 V2000
   -6.8010    0.0150   25.8250 C   0  0  0  0  0
   -6.6470    0.8240   24.6490 O   0  0  0  0  0
   -6.8370    0.9010   27.0710 C   0  0  0  0  0
   -8.0430    1.6770   27.2090 O   0  0  0  0  0
   -5.9425   -0.6861   25.8819 H   0  0  0  0  0
   -7.7214   -0.6009   25.7476 H   0  0  0  0  0
   -7.4636    1.2894   24.5198 H   0  0  0  0  0
   -5.9510    1.5712   27.0893 H   0  0  0  0  0
   -6.7508    0.2553   27.9704 H   0  0  0  0  0
   -7.8481    2.5719   26.9635 H   0  0  0  0  0
  1  2  1  0  0  0
  1  3  1  0  0  0
  1  5  1  0  0  0
  1  6  1  0  0  0
  2  7  1  0  0  0
  3  4  1  0  0  0
  3  8  1  0  0  0
  3  9  1  0  0  0
  4 10  1  0  0  0
M  END
$$$$
