EDO_3_B_404
  -ISIS-            3D

 10  9  0  0  0  0  0  0  0  0  1 V2000
  111.0650  -50.3880   32.0610 C   0  0  0  0  0
  111.0190  -50.7320   30.6730 O   0  0  0  0  0
  111.3260  -48.8910   32.2210 C   0  0  0  0  0
  112.4330  -48.4570   31.4170 O   0  0  0  0  0
  111.8706  -50.9737   32.5519 H   0  0  0  0  0
  110.1085  -50.6764   32.5430 H   0  0  0  0  0
  111.7367  -50.2648   30.2599 H   0  0  0  0  0
  111.5246  -48.6528   33.2874 H   0  0  0  0  0
  110.4195  -48.3218   31.9231 H   0  0  0  0  0
  112.5495  -47.5260   31.5514 H   0  0  0  0  0
  1  2  1  0  0  0
  1  3  1  0  0  0
  1  5  1  0  0  0
  1  6  1  0  0  0
  2  7  1  0  0  0
  3  4  1  0  0  0
  3  8  1  0  0  0
  3  9  1  0  0  0
  4 10  1  0  0  0
M  END
$$$$
