EDO_3_A_409
  -ISIS-            3D

 10  9  0  0  0  0  0  0  0  0  1 V2000
  108.8670  -58.0220  -19.0330 C   0  0  0  0  0
  108.7650  -58.5220  -20.3720 O   0  0  0  0  0
  107.7210  -58.5820  -18.1950 C   0  0  0  0  0
  107.5460  -57.8220  -16.9880 O   0  0  0  0  0
  108.8398  -56.9118  -19.0492 H   0  0  0  0  0
  109.8456  -58.3207  -18.6043 H   0  0  0  0  0
  108.1263  -57.9998  -20.8393 H   0  0  0  0  0
  107.8902  -59.6525  -17.9536 H   0  0  0  0  0
  106.7714  -58.5284  -18.7675 H   0  0  0  0  0
  108.2095  -58.0931  -16.3673 H   0  0  0  0  0
  1  2  1  0  0  0
  1  3  1  0  0  0
  1  5  1  0  0  0
  1  6  1  0  0  0
  2  7  1  0  0  0
  3  4  1  0  0  0
  3  8  1  0  0  0
  3  9  1  0  0  0
  4 10  1  0  0  0
M  END
$$$$
