EDO_3_A_403
  -ISIS-            3D

 10  9  0  0  0  0  0  0  0  0  1 V2000
   93.6770  -34.7320    0.1420 C   0  0  0  0  0
   94.1200  -33.7740    1.1180 O   0  0  0  0  0
   94.6700  -34.8770   -1.0110 C   0  0  0  0  0
   95.9820  -35.1930   -0.5240 O   0  0  0  0  0
   92.6857  -34.4157   -0.2434 H   0  0  0  0  0
   93.5287  -35.7116    0.6434 H   0  0  0  0  0
   95.0618  -33.8804    1.1893 H   0  0  0  0  0
   94.7270  -33.9248   -1.5787 H   0  0  0  0  0
   94.3306  -35.6566   -1.7256 H   0  0  0  0  0
   96.0487  -36.1340   -0.4300 H   0  0  0  0  0
  1  2  1  0  0  0
  1  3  1  0  0  0
  1  5  1  0  0  0
  1  6  1  0  0  0
  2  7  1  0  0  0
  3  4  1  0  0  0
  3  8  1  0  0  0
  3  9  1  0  0  0
  4 10  1  0  0  0
M  END
$$$$
