EDO_2_A_403
  -ISIS-            3D

 10  9  0  0  0  0  0  0  0  0  1 V2000
   74.0400  -63.7600    0.1420 C   0  0  0  0  0
   74.6480  -64.6240    1.1180 O   0  0  0  0  0
   73.4180  -64.5480   -1.0110 C   0  0  0  0  0
   72.4880  -65.5260   -0.5240 O   0  0  0  0  0
   74.7909  -63.0375   -0.2425 H   0  0  0  0  0
   73.2551  -63.1607    0.6491 H   0  0  0  0  0
   75.5370  -64.8066    0.8434 H   0  0  0  0  0
   74.2091  -65.0618   -1.5965 H   0  0  0  0  0
   72.8901  -63.8646   -1.7077 H   0  0  0  0  0
   72.8630  -65.8812    0.2740 H   0  0  0  0  0
  1  2  1  0  0  0
  1  3  1  0  0  0
  1  5  1  0  0  0
  1  6  1  0  0  0
  2  7  1  0  0  0
  3  4  1  0  0  0
  3  8  1  0  0  0
  3  9  1  0  0  0
  4 10  1  0  0  0
M  END
$$$$
