EDO_1_A_405
  -ISIS-            3D

 10  9  0  0  0  0  0  0  0  0  1 V2000
   79.1620  -29.6550  -29.3070 C   0  0  0  0  0
   77.9760  -30.0050  -30.0310 O   0  0  0  0  0
   79.3270  -30.5680  -28.0940 C   0  0  0  0  0
   79.3290  -31.9390  -28.5140 O   0  0  0  0  0
   79.0934  -28.5939  -28.9904 H   0  0  0  0  0
   80.0408  -29.7402  -29.9804 H   0  0  0  0  0
   77.9895  -30.9515  -30.1171 H   0  0  0  0  0
   78.4971  -30.4024  -27.3746 H   0  0  0  0  0
   80.2767  -30.3370  -27.5668 H   0  0  0  0  0
   79.4357  -32.4834  -27.7455 H   0  0  0  0  0
  1  2  1  0  0  0
  1  3  1  0  0  0
  1  5  1  0  0  0
  1  6  1  0  0  0
  2  7  1  0  0  0
  3  4  1  0  0  0
  3  8  1  0  0  0
  3  9  1  0  0  0
  4 10  1  0  0  0
M  END
$$$$
