U5P_1_A_401
  -ISIS-            3D

 33 34  0  0  0  0  0  0  0  0  1 V2000
   92.3640  -20.4890  -25.5720 N   0  0  0  0  0
   90.9870  -20.5000  -25.6950 C   0  0  0  0  0
   90.3030  -19.9000  -24.6640 N   0  0  0  0  0
   90.8500  -19.3170  -23.5370 C   0  0  0  0  0
   92.2830  -19.3520  -23.4790 C   0  0  0  0  0
   92.9760  -19.9310  -24.4730 C   0  0  0  0  0
   90.4190  -21.0030  -26.6550 O   0  0  0  0  0
   90.1060  -18.8250  -22.6870 O   0  0  0  0  0
   93.1330  -21.1580  -26.6600 C   0  0  0  0  0
   93.3260  -20.2730  -27.8920 C   0  0  0  0  0
   93.3810  -21.1180  -29.0270 O   0  0  0  0  0
   94.7040  -19.6930  -27.6300 C   0  0  0  0  0
   95.4340  -20.8670  -26.9960 C   0  0  0  0  0
   95.3350  -19.1960  -28.7970 O   0  0  0  0  0
   94.4170  -21.4990  -26.1740 O   0  0  0  0  0
   96.6270  -20.5050  -26.1520 C   0  0  0  0  0
   96.2390  -19.7040  -25.0470 O   0  0  0  0  0
   97.3220  -18.9950  -24.1170 P   0  0  0  0  0
   98.1120  -18.1070  -25.0600 O   0  0  0  0  0
   96.5320  -18.2960  -23.0250 O   0  0  0  0  0
   98.1610  -20.1350  -23.5670 O   0  0  0  0  0
   92.7734  -18.9025  -22.6011 H   0  0  0  0  0
   94.0680  -19.9864  -24.4318 H   0  0  0  0  0
   92.6178  -22.0982  -26.9555 H   0  0  0  0  0
   92.5490  -19.4903  -28.0057 H   0  0  0  0  0
   92.4934  -21.3026  -29.3048 H   0  0  0  0  0
   94.6125  -18.8655  -26.8947 H   0  0  0  0  0
   95.7476  -21.5818  -27.7874 H   0  0  0  0  0
   95.0470  -19.7445  -29.5181 H   0  0  0  0  0
   97.3699  -19.9678  -26.7781 H   0  0  0  0  0
   97.1167  -21.4311  -25.7833 H   0  0  0  0  0
   97.5306  -20.8218  -22.9255 H   0  0  0  0  0
   89.2766  -19.8891  -24.7381 H   0  0  0  0  0
  1  2  1  0  0  0
  1  6  1  0  0  0
  1  9  1  0  0  0
  2  3  1  0  0  0
  2  7  2  0  0  0
  3  4  1  0  0  0
  4  5  1  0  0  0
  4  8  2  0  0  0
  5  6  2  0  0  0
  5 22  1  0  0  0
  6 23  1  0  0  0
  9 10  1  0  0  0
  9 15  1  0  0  0
  9 24  1  0  0  0
 10 11  1  0  0  0
 10 12  1  0  0  0
 10 25  1  0  0  0
 11 26  1  0  0  0
 12 13  1  0  0  0
 12 14  1  0  0  0
 12 27  1  0  0  0
 13 15  1  0  0  0
 13 16  1  0  0  0
 13 28  1  0  0  0
 14 29  1  0  0  0
 16 17  1  0  0  0
 16 30  1  0  0  0
 16 31  1  0  0  0
 17 18  1  0  0  0
 18 19  2  0  0  0
 18 20  2  0  0  0
 18 21  1  0  0  0
 21 32  1  0  0  0
  3 33  1  0  0  0
M  END
$$$$
