DMS_1_A_406
  -ISIS-            3D

 10  9  0  0  0  0  0  0  0  0  1 V2000
    6.2640   -1.0490   -6.3510 S   0  0  0  0  0
    7.1320   -0.5800   -7.4770 O   0  0  0  0  0
    7.1440   -0.9200   -4.7660 C   0  0  0  0  0
    5.9960   -2.8400   -6.4350 C   0  0  0  0  0
    6.4962   -1.3008   -3.9502 H   0  0  0  0  0
    7.3911    0.1436   -4.5710 H   0  0  0  0  0
    8.0800   -1.5138   -4.8074 H   0  0  0  0  0
    5.3807   -3.1642   -5.5710 H   0  0  0  0  0
    6.9720   -3.3668   -6.4163 H   0  0  0  0  0
    5.4633   -3.0861   -7.3762 H   0  0  0  0  0
  1  2  2  0  0  0
  1  3  1  0  0  0
  1  4  1  0  0  0
  3  5  1  0  0  0
  3  6  1  0  0  0
  3  7  1  0  0  0
  4  8  1  0  0  0
  4  9  1  0  0  0
  4 10  1  0  0  0
M  END
$$$$
