DMS_2_A_402
  -ISIS-            3D

 10  9  0  0  0  0  0  0  0  0  1 V2000
    2.4630    4.4110  -31.7480 S   0  0  0  0  0
    2.5730    5.6870  -30.9380 O   0  0  0  0  0
    4.0890    3.5760  -31.8830 C   0  0  0  0  0
    1.9580    4.7860  -33.4600 C   0  0  0  0  0
    3.9759    2.6471  -32.4783 H   0  0  0  0  0
    4.4547    3.3225  -30.8671 H   0  0  0  0  0
    4.8126    4.2533  -32.3809 H   0  0  0  0  0
    1.8805    3.8411  -34.0355 H   0  0  0  0  0
    2.7112    5.4494  -33.9321 H   0  0  0  0  0
    0.9717    5.2931  -33.4479 H   0  0  0  0  0
  1  2  2  0  0  0
  1  3  1  0  0  0
  1  4  1  0  0  0
  3  5  1  0  0  0
  3  6  1  0  0  0
  3  7  1  0  0  0
  4  8  1  0  0  0
  4  9  1  0  0  0
  4 10  1  0  0  0
M  END
$$$$
