DMS_1_A_1005
  -ISIS-            3D

 10  9  0  0  0  0  0  0  0  0  1 V2000
   21.6210   13.8660    7.3250 S   0  0  0  0  0
   22.9500   14.4830    7.2560 O   0  0  0  0  0
   21.8920   12.3170    8.1350 C   0  0  0  0  0
   21.3190   13.2730    5.6860 C   0  0  0  0  0
   20.9703   11.7019    8.0869 H   0  0  0  0  0
   22.1461   12.4975    9.1996 H   0  0  0  0  0
   22.7263   11.7673    7.6525 H   0  0  0  0  0
   20.4062   12.6429    5.6770 H   0  0  0  0  0
   22.1814   12.6760    5.3241 H   0  0  0  0  0
   21.1650   14.1349    5.0049 H   0  0  0  0  0
  1  2  2  0  0  0
  1  3  1  0  0  0
  1  4  1  0  0  0
  3  5  1  0  0  0
  3  6  1  0  0  0
  3  7  1  0  0  0
  4  8  1  0  0  0
  4  9  1  0  0  0
  4 10  1  0  0  0
M  END
$$$$
