DMS_2_A_402
  -ISIS-            3D

 10  9  0  0  0  0  0  0  0  0  1 V2000
   -6.2290    0.2880  -18.4710 S   0  0  0  0  0
   -7.2630    0.7350  -17.4880 O   0  0  0  0  0
   -5.4830    1.7270  -19.2900 C   0  0  0  0  0
   -7.0350   -0.5000  -19.8930 C   0  0  0  0  0
   -4.7611    1.3835  -20.0590 H   0  0  0  0  0
   -4.9489    2.3401  -18.5352 H   0  0  0  0  0
   -6.2741    2.3397  -19.7681 H   0  0  0  0  0
   -6.2696   -0.7795  -20.6456 H   0  0  0  0  0
   -7.7660    0.1997  -20.3466 H   0  0  0  0  0
   -7.5636   -1.4141  -19.5527 H   0  0  0  0  0
  1  2  2  0  0  0
  1  3  1  0  0  0
  1  4  1  0  0  0
  3  5  1  0  0  0
  3  6  1  0  0  0
  3  7  1  0  0  0
  4  8  1  0  0  0
  4  9  1  0  0  0
  4 10  1  0  0  0
M  END
$$$$
