DMS_1_A_401
  -ISIS-            3D

 10  9  0  0  0  0  0  0  0  0  1 V2000
    6.9720  -28.0070   21.4540 S   0  0  0  0  0
    7.7740  -27.1130   22.3310 O   0  0  0  0  0
    5.7650  -28.7680   22.5110 C   0  0  0  0  0
    5.8940  -26.9370   20.5550 C   0  0  0  0  0
    5.0333  -29.3342   21.8991 H   0  0  0  0  0
    5.2316  -27.9985   23.1060 H   0  0  0  0  0
    6.2738  -29.4709   23.2021 H   0  0  0  0  0
    5.1578  -27.5381   19.9831 H   0  0  0  0  0
    6.4889  -26.3294   19.8427 H   0  0  0  0  0
    5.3559  -26.2572   21.2471 H   0  0  0  0  0
  1  2  2  0  0  0
  1  3  1  0  0  0
  1  4  1  0  0  0
  3  5  1  0  0  0
  3  6  1  0  0  0
  3  7  1  0  0  0
  4  8  1  0  0  0
  4  9  1  0  0  0
  4 10  1  0  0  0
M  END
$$$$
