PGE_1_A_2001
  -ISIS-            3D

 24 23  0  0  0  0  0  0  0  0  1 V2000
   11.1550    6.2910   65.8020 C   0  0  0  0  0
   10.5610    7.1050   64.7990 O   0  0  0  0  0
   12.6580    6.2770   65.6070 C   0  0  0  0  0
   12.9790    5.5100   64.4640 O   0  0  0  0  0
   14.3030    5.7070   64.0120 C   0  0  0  0  0
   14.6130    4.6720   62.9480 C   0  0  0  0  0
   11.4170    2.8650   60.3960 O   0  0  0  0  0
   12.3240    3.9400   60.1930 C   0  0  0  0  0
   13.5370    3.7290   61.0750 C   0  0  0  0  0
   13.7790    4.9000   61.8290 O   0  0  0  0  0
   10.7311    5.2658   65.7643 H   0  0  0  0  0
   10.9004    6.7145   66.7957 H   0  0  0  0  0
   10.8289    6.7474   63.9606 H   0  0  0  0  0
   13.1526    5.8318   66.4958 H   0  0  0  0  0
   13.0348    7.3163   65.5027 H   0  0  0  0  0
   15.0141    5.5930   64.8575 H   0  0  0  0  0
   14.4210    6.7332   63.6057 H   0  0  0  0  0
   14.4566    3.6590   63.3736 H   0  0  0  0  0
   15.6751    4.7379   62.6328 H   0  0  0  0  0
   10.6361    3.0322   59.8850 H   0  0  0  0  0
   11.8159    4.8966   60.4386 H   0  0  0  0  0
   12.6190    3.9876   59.1237 H   0  0  0  0  0
   14.4326    3.4809   60.4684 H   0  0  0  0  0
   13.3520    2.8690   61.7520 H   0  0  0  0  0
  1  2  1  0  0  0
  1  3  1  0  0  0
  1 11  1  0  0  0
  1 12  1  0  0  0
  2 13  1  0  0  0
  3  4  1  0  0  0
  3 14  1  0  0  0
  3 15  1  0  0  0
  4  5  1  0  0  0
  5  6  1  0  0  0
  5 16  1  0  0  0
  5 17  1  0  0  0
  6 10  1  0  0  0
  6 18  1  0  0  0
  6 19  1  0  0  0
  7  8  1  0  0  0
  7 20  1  0  0  0
  8  9  1  0  0  0
  8 21  1  0  0  0
  8 22  1  0  0  0
  9 10  1  0  0  0
  9 23  1  0  0  0
  9 24  1  0  0  0
M  END
$$$$
