DMS_1_A_403
  -ISIS-            3D

 10  9  0  0  0  0  0  0  0  0  1 V2000
    6.1640   -0.9820   -6.2790 S   0  0  0  0  0
    7.1060   -0.8140   -7.3840 O   0  0  0  0  0
    7.1220   -0.8660   -4.7600 C   0  0  0  0  0
    5.7570   -2.7080   -6.1790 C   0  0  0  0  0
    6.4758   -1.1061   -3.8910 H   0  0  0  0  0
    7.5059    0.1688   -4.6487 H   0  0  0  0  0
    7.9787   -1.5700   -4.7921 H   0  0  0  0  0
    5.1451   -2.8981   -5.2736 H   0  0  0  0  0
    6.6810   -3.3204   -6.1364 H   0  0  0  0  0
    5.1714   -2.9992   -7.0750 H   0  0  0  0  0
  1  2  2  0  0  0
  1  3  1  0  0  0
  1  4  1  0  0  0
  3  5  1  0  0  0
  3  6  1  0  0  0
  3  7  1  0  0  0
  4  8  1  0  0  0
  4  9  1  0  0  0
  4 10  1  0  0  0
M  END
$$$$
