DMS_1_A_402
  -ISIS-            3D

 10  9  0  0  0  0  0  0  0  0  1 V2000
    7.1110  -28.1000   21.5930 S   0  0  0  0  0
    7.8040  -27.0900   22.3970 O   0  0  0  0  0
    6.0580  -27.1820   20.4980 C   0  0  0  0  0
    5.8090  -28.7360   22.6580 C   0  0  0  0  0
    5.3727  -27.8738   19.9669 H   0  0  0  0  0
    6.6812  -26.6522   19.7488 H   0  0  0  0  0
    5.4635  -26.4363   21.0647 H   0  0  0  0  0
    5.1309  -29.3890   22.0715 H   0  0  0  0  0
    5.2288  -27.9002   23.1003 H   0  0  0  0  0
    6.2648  -29.3327   23.4745 H   0  0  0  0  0
  1  2  2  0  0  0
  1  3  1  0  0  0
  1  4  1  0  0  0
  3  5  1  0  0  0
  3  6  1  0  0  0
  3  7  1  0  0  0
  4  8  1  0  0  0
  4  9  1  0  0  0
  4 10  1  0  0  0
M  END
$$$$
