FMT_2_A_415
  -ISIS-            3D

  4  3  0  0  0  0  0  0  0  0  1 V2000
   -3.0300  -18.4040   -8.3060 C   0  0  0  0  0
   -2.2550  -19.1960   -7.8760 O   0  0  0  0  0
   -4.0740  -18.7920   -9.0840 O   0  0  0  0  0
   -2.9055  -17.2829   -8.0662 H   0  0  0  0  0
  1  2  2  0  0  0
  1  3  1  0  0  0
  1  4  1  0  0  0
M  END
$$$$
