FMT_2_A_410
  -ISIS-            3D

  4  3  0  0  0  0  0  0  0  0  1 V2000
  -10.3020  -11.3890  -30.7170 C   0  0  0  0  0
   -9.0990  -11.4200  -30.8710 O   0  0  0  0  0
  -10.9950  -12.3640  -30.1730 O   0  0  0  0  0
  -10.8780  -10.4520  -31.0662 H   0  0  0  0  0
  1  2  2  0  0  0
  1  3  1  0  0  0
  1  4  1  0  0  0
M  END
$$$$
