DMS_1_A_202
  -ISIS-            3D

 10  9  0  0  0  0  0  0  0  0  1 V2000
   -0.7930    9.4280   -7.3730 S   0  0  0  0  0
   -0.6920    9.5370   -8.8310 O   0  0  0  0  0
    0.2140    8.0640   -6.9450 C   0  0  0  0  0
   -2.3330    8.6820   -7.1870 C   0  0  0  0  0
    0.0354    7.7785   -5.8881 H   0  0  0  0  0
    1.2812    8.3440   -7.0603 H   0  0  0  0  0
   -0.0006    7.1950   -7.6005 H   0  0  0  0  0
   -2.4844    8.3824   -6.1297 H   0  0  0  0  0
   -2.4223    7.7849   -7.8338 H   0  0  0  0  0
   -3.1308    9.4015   -7.4639 H   0  0  0  0  0
  1  2  2  0  0  0
  1  3  1  0  0  0
  1  4  1  0  0  0
  3  5  1  0  0  0
  3  6  1  0  0  0
  3  7  1  0  0  0
  4  8  1  0  0  0
  4  9  1  0  0  0
  4 10  1  0  0  0
M  END
$$$$
