DMS_2_A_405
  -ISIS-            3D

 10  9  0  0  0  0  0  0  0  0  1 V2000
   -5.7100    0.2780  -18.1040 S   0  0  0  0  0
   -6.8850    0.9460  -17.4500 O   0  0  0  0  0
   -6.3780   -0.6130  -19.4760 C   0  0  0  0  0
   -4.8810    1.5440  -19.0380 C   0  0  0  0  0
   -5.5551   -1.0139  -20.1025 H   0  0  0  0  0
   -7.0229    0.0469  -20.0919 H   0  0  0  0  0
   -6.9860   -1.4617  -19.1011 H   0  0  0  0  0
   -4.0929    1.0891  -19.6724 H   0  0  0  0  0
   -4.4064    2.2625  -18.3388 H   0  0  0  0  0
   -5.6038    2.0890  -19.6792 H   0  0  0  0  0
  1  2  2  0  0  0
  1  3  1  0  0  0
  1  4  1  0  0  0
  3  5  1  0  0  0
  3  6  1  0  0  0
  3  7  1  0  0  0
  4  8  1  0  0  0
  4  9  1  0  0  0
  4 10  1  0  0  0
M  END
$$$$
