DMS_1_A_401
  -ISIS-            3D

 10  9  0  0  0  0  0  0  0  0  1 V2000
    6.9920  -28.0990   21.4580 S   0  0  0  0  0
    7.6400  -27.0670   22.2710 O   0  0  0  0  0
    5.7140  -28.7440   22.5060 C   0  0  0  0  0
    5.9790  -27.2340   20.3050 C   0  0  0  0  0
    5.0637  -29.4304   21.9261 H   0  0  0  0  0
    5.0999  -27.9187   22.9219 H   0  0  0  0  0
    6.1742  -29.3090   23.3423 H   0  0  0  0  0
    5.3288  -27.9509   19.7632 H   0  0  0  0  0
    6.6230  -26.7101   19.5693 H   0  0  0  0  0
    5.3468  -26.4865   20.8272 H   0  0  0  0  0
  1  2  2  0  0  0
  1  3  1  0  0  0
  1  4  1  0  0  0
  3  5  1  0  0  0
  3  6  1  0  0  0
  3  7  1  0  0  0
  4  8  1  0  0  0
  4  9  1  0  0  0
  4 10  1  0  0  0
M  END
$$$$
