FMT_1_A_512
  -ISIS-            3D

  4  3  0  0  0  0  0  0  0  0  1 V2000
   30.5230   12.6610   50.7790 C   0  0  0  0  0
   29.6720   11.8690   51.1370 O   0  0  0  0  0
   30.7410   13.0250   49.5360 O   0  0  0  0  0
   31.1950   13.1334   51.5901 H   0  0  0  0  0
  1  2  2  0  0  0
  1  3  1  0  0  0
  1  4  1  0  0  0
M  END
$$$$
