FMT_1_A_7108
  -ISIS-            3D

  4  3  0  0  0  0  0  0  0  0  1 V2000
   91.6210   11.5270   14.7880 C   0  0  0  0  0
   90.8010   11.5400   13.8930 O   0  0  0  0  0
   92.8960   11.7290   14.6330 O   0  0  0  0  0
   91.2464   11.3202   15.8601 H   0  0  0  0  0
  1  2  2  0  0  0
  1  3  1  0  0  0
  1  4  1  0  0  0
M  END
$$$$
