ADN_1_A_204
  -ISIS-            3D

 32 34  0  0  0  0  0  0  0  0  1 V2000
   24.8540   44.5250   32.8470 O   0  0  0  0  0
   23.5520   43.9500   32.7650 C   0  0  0  0  0
   23.6130   42.4960   32.3440 C   0  0  0  0  0
   24.6850   41.8460   33.0730 O   0  0  0  0  0
   22.3450   41.6660   32.6350 C   0  0  0  0  0
   22.0510   40.7390   31.5900 O   0  0  0  0  0
   22.7100   40.9210   33.9210 C   0  0  0  0  0
   21.9980   39.7070   34.0560 O   0  0  0  0  0
   24.1960   40.6770   33.6850 C   0  0  0  0  0
   24.9840   40.4380   34.8850 N   0  0  0  0  0
   24.6590   40.7290   36.1910 C   0  0  0  0  0
   25.6000   40.4040   37.0400 N   0  0  0  0  0
   26.6090   39.8660   36.2500 C   0  0  0  0  0
   27.8790   39.3340   36.5630 C   0  0  0  0  0
   28.3570   39.2610   37.8090 N   0  0  0  0  0
   28.6270   38.8450   35.5260 N   0  0  0  0  0
   28.1420   38.9480   34.2770 C   0  0  0  0  0
   26.9730   39.4460   33.8650 N   0  0  0  0  0
   26.2440   39.8890   34.9140 C   0  0  0  0  0
   25.4292   43.8600   33.2104 H   0  0  0  0  0
   22.9361   44.5388   32.0548 H   0  0  0  0  0
   23.0691   44.0403   33.7608 H   0  0  0  0  0
   23.8421   42.4508   31.2576 H   0  0  0  0  0
   21.4650   42.3234   32.7952 H   0  0  0  0  0
   21.5711   40.0197   31.9848 H   0  0  0  0  0
   22.5317   41.5865   34.7902 H   0  0  0  0  0
   22.3554   39.2392   34.7989 H   0  0  0  0  0
   24.3391   39.8112   33.0029 H   0  0  0  0  0
   23.7488   41.1876   36.5989 H   0  0  0  0  0
   28.7965   38.5538   33.4808 H   0  0  0  0  0
   29.2876   38.8337   37.8970 H   0  0  0  0  0
   27.7680   39.6313   38.5657 H   0  0  0  0  0
  1  2  1  0  0  0
  1 20  1  0  0  0
  2  3  1  0  0  0
  2 21  1  0  0  0
  2 22  1  0  0  0
  3  4  1  0  0  0
  3  5  1  0  0  0
  3 23  1  0  0  0
  4  9  1  0  0  0
  5  6  1  0  0  0
  5  7  1  0  0  0
  5 24  1  0  0  0
  6 25  1  0  0  0
  7  8  1  0  0  0
  7  9  1  0  0  0
  7 26  1  0  0  0
  8 27  1  0  0  0
  9 10  1  0  0  0
  9 28  1  0  0  0
 10 11  1  0  0  0
 10 19  1  0  0  0
 11 12  2  0  0  0
 11 29  1  0  0  0
 12 13  1  0  0  0
 13 14  2  0  0  0
 13 19  1  0  0  0
 14 15  1  0  0  0
 14 16  1  0  0  0
 15 31  1  0  0  0
 15 32  1  0  0  0
 16 17  2  0  0  0
 17 18  1  0  0  0
 17 30  1  0  0  0
 18 19  2  0  0  0
M  END
$$$$
