NMI_1_A_201
  -ISIS-            3D

 27 28  0  0  0  0  0  0  0  0  1 V2000
  -43.6740  -25.5130   -0.4290 C   0  0  0  0  0
  -44.4090  -26.6630   -0.0190 N   0  0  0  0  0
  -43.7280  -27.4630    0.7040 C   0  0  0  0  0
  -45.6600  -27.1440   -0.1860 C   0  0  0  0  0
  -46.7820  -26.7000   -0.9400 C   0  0  0  0  0
  -48.0150  -27.3890   -0.8770 C   0  0  0  0  0
  -48.0820  -28.6100   -0.1280 C   0  0  0  0  0
  -46.9340  -29.0450    0.5110 C   0  0  0  0  0
  -45.7380  -28.3320    0.5110 C   0  0  0  0  0
  -44.4850  -28.5070    1.1050 C   0  0  0  0  0
  -43.9510  -29.5780    2.0640 C   0  0  0  0  0
  -43.8530  -30.9730    1.5530 C   0  0  0  0  0
  -43.6400  -31.8610    2.7460 C   0  0  0  0  0
  -44.0380  -32.9920    2.5680 O   0  0  0  0  0
  -43.0460  -31.5210    3.7580 O   0  0  0  0  0
  -44.3073  -24.8460   -1.0543 H   0  0  0  0  0
  -42.7841  -25.7701   -1.0461 H   0  0  0  0  0
  -43.3245  -24.8985    0.4307 H   0  0  0  0  0
  -42.6777  -27.2564    0.9569 H   0  0  0  0  0
  -46.6968  -25.7859   -1.5503 H   0  0  0  0  0
  -48.9022  -27.0091   -1.4103 H   0  0  0  0  0
  -49.0214  -29.1850   -0.0743 H   0  0  0  0  0
  -46.9764  -29.9957    1.0692 H   0  0  0  0  0
  -44.6328  -29.5562    2.9472 H   0  0  0  0  0
  -42.9555  -29.2481    2.4423 H   0  0  0  0  0
  -43.0147  -31.0719    0.8268 H   0  0  0  0  0
  -44.7888  -31.2568    1.0198 H   0  0  0  0  0
  1  2  1  0  0  0
  1 16  1  0  0  0
  1 17  1  0  0  0
  1 18  1  0  0  0
  2  3  1  0  0  0
  2  4  1  0  0  0
  3 10  2  0  0  0
  3 19  1  0  0  0
  4  5  2  0  0  0
  4  9  1  0  0  0
  5  6  1  0  0  0
  5 20  1  0  0  0
  6  7  2  0  0  0
  6 21  1  0  0  0
  7  8  1  0  0  0
  7 22  1  0  0  0
  8  9  2  0  0  0
  8 23  1  0  0  0
  9 10  1  0  0  0
 10 11  1  0  0  0
 11 12  1  0  0  0
 11 24  1  0  0  0
 11 25  1  0  0  0
 12 13  1  0  0  0
 12 26  1  0  0  0
 12 27  1  0  0  0
 13 14  2  0  0  0
 13 15  2  0  0  0
M  END
$$$$
