G85_1_A_501
  -ISIS-            3D

 95 97  0  0  0  0  0  0  0  0  1 V2000
   25.5530   45.7940   -5.7950 C   0  0  0  0  0
   26.7310   45.4630   -5.7350 O   0  0  0  0  0
   25.1370   46.6980   -6.8510 O   0  0  0  0  0
   26.1240   47.2220   -7.7440 C   0  0  0  0  0
   26.8940   48.3580   -7.0980 C   0  0  0  0  0
   28.1820   48.1360   -6.5930 C   0  0  0  0  0
   28.9070   49.1770   -6.0050 C   0  0  0  0  0
   28.3320   50.4470   -5.9220 C   0  0  0  0  0
   27.0490   50.6710   -6.4310 C   0  0  0  0  0
   26.3260   49.6290   -7.0190 C   0  0  0  0  0
   24.1200   43.2240   -3.9190 C   0  0  0  0  0
   24.6350   45.3700   -4.9360 N   0  0  0  0  0
   22.8920   43.3000   -3.8860 O   0  0  0  0  0
   24.6330   46.0660    0.3020 C   0  0  0  0  0
   23.0090   44.2440   -0.2700 C   0  0  0  0  0
   25.1790   43.6760    0.7450 C   0  0  0  0  0
   24.9590   44.4660   -3.8510 C   0  0  0  0  0
   24.6140   45.2360   -2.5820 C   0  0  0  0  0
   24.4800   44.6320   -0.2050 C   0  0  0  0  0
   25.1200   44.4770   -1.4800 O   0  0  0  0  0
   24.7770   42.0680   -4.0010 N   0  0  0  0  0
   24.0240   40.8270   -4.0470 C   0  0  0  0  0
   23.2460   40.6030   -2.7860 C   0  0  0  0  0
   23.7610   40.8790   -1.6970 O   0  0  0  0  0
   25.0530   39.6830   -4.0730 C   0  0  0  0  0
   25.8650   39.5070   -5.3410 C   0  0  0  0  0
   27.0700   38.8030   -5.2310 C   0  0  0  0  0
   25.4620   39.9990   -6.5840 C   0  0  0  0  0
   27.8730   38.6000   -6.3610 C   0  0  0  0  0
   26.2600   39.7970   -7.7140 C   0  0  0  0  0
   27.4670   39.0960   -7.5950 C   0  0  0  0  0
   24.1120   37.8640    0.1930 O   0  0  0  0  0
   24.5740   38.2710    1.4830 C   0  0  0  0  0
   24.6130   39.7880    1.5380 C   0  0  0  0  0
   22.0060   40.1210   -2.9290 N   0  0  0  0  0
   21.1640   39.7880   -1.7790 C   0  0  0  0  0
   19.8460   40.5600   -1.8270 C   0  0  0  0  0
   20.0570   41.9440   -1.2290 C   0  0  0  0  0
   20.9330   38.2790   -1.8910 C   0  0  0  0  0
   18.8110   42.7660   -1.1820 C   0  0  0  0  0
   17.9850   42.8570   -2.0760 O   0  0  0  0  0
   18.7750   43.4240   -0.0290 N   0  0  0  0  0
   19.8280   43.1230    0.9420 C   0  0  0  0  0
   20.4300   41.8880    0.2620 C   0  0  0  0  0
   22.2130   37.5110   -1.5030 C   0  0  0  0  0
   22.6880   37.8320   -0.0900 C   0  0  0  0  0
   21.9220   38.0690    0.8370 O   0  0  0  0  0
   25.6223   47.6017   -8.6583 H   0  0  0  0  0
   26.8137   46.4267   -8.0935 H   0  0  0  0  0
   28.6381   47.1335   -6.6546 H   0  0  0  0  0
   29.9204   48.9958   -5.6088 H   0  0  0  0  0
   28.8924   51.2755   -5.4562 H   0  0  0  0  0
   26.6027   51.6782   -6.3658 H   0  0  0  0  0
   25.3134   49.8180   -7.4140 H   0  0  0  0  0
   23.6607   45.6752   -5.0592 H   0  0  0  0  0
   25.6995   46.3789    0.3366 H   0  0  0  0  0
   24.2257   46.1851    1.3297 H   0  0  0  0  0
   24.0993   46.8002   -0.3391 H   0  0  0  0  0
   22.8719   43.2620   -0.7686 H   0  0  0  0  0
   22.3814   44.9823   -0.8119 H   0  0  0  0  0
   22.5861   44.1624    0.7527 H   0  0  0  0  0
   25.1016   42.6231    0.3981 H   0  0  0  0  0
   24.7539   43.7133    1.7717 H   0  0  0  0  0
   26.2636   43.9042    0.8357 H   0  0  0  0  0
   26.0424   44.2101   -3.8332 H   0  0  0  0  0
   23.5217   45.4028   -2.5088 H   0  0  0  0  0
   25.1045   46.2331   -2.5846 H   0  0  0  0  0
   25.8055   42.0512   -4.0328 H   0  0  0  0  0
   23.3566   40.7859   -4.9366 H   0  0  0  0  0
   24.5120   38.7206   -3.9128 H   0  0  0  0  0
   25.7456   39.7897   -3.2055 H   0  0  0  0  0
   27.3990   38.4022   -4.2570 H   0  0  0  0  0
   24.5169   40.5521   -6.7034 H   0  0  0  0  0
   28.8238   38.0475   -6.2715 H   0  0  0  0  0
   25.9418   40.1879   -8.6954 H   0  0  0  0  0
   28.0981   38.9369   -8.4860 H   0  0  0  0  0
   25.5946   37.8676    1.6509 H   0  0  0  0  0
   23.9363   37.8649    2.2952 H   0  0  0  0  0
   24.9883   40.1485    2.5204 H   0  0  0  0  0
   23.6086   40.2392    1.3871 H   0  0  0  0  0
   25.2863   40.2041    0.7576 H   0  0  0  0  0
   21.6225   39.9826   -3.8743 H   0  0  0  0  0
   21.6784   39.9991   -0.8179 H   0  0  0  0  0
   19.0626   40.0258   -1.2421 H   0  0  0  0  0
   19.4711   40.6301   -2.8733 H   0  0  0  0  0
   20.8304   42.5070   -1.8017 H   0  0  0  0  0
   20.6052   37.9980   -2.9181 H   0  0  0  0  0
   20.1122   37.9691   -1.2036 H   0  0  0  0  0
   18.0243   44.1012    0.1594 H   0  0  0  0  0
   19.4286   42.8834    1.9526 H   0  0  0  0  0
   20.5498   43.9606    1.0307 H   0  0  0  0  0
   21.5276   41.8334    0.4296 H   0  0  0  0  0
   19.9858   40.9776    0.7289 H   0  0  0  0  0
   23.0280   37.7229   -2.2279 H   0  0  0  0  0
   22.0159   36.4176   -1.5671 H   0  0  0  0  0
  1  2  2  0  0  0
  1  3  1  0  0  0
  1 12  1  0  0  0
  3  4  1  0  0  0
  4  5  1  0  0  0
  4 48  1  0  0  0
  4 49  1  0  0  0
  5  6  2  0  0  0
  5 10  1  0  0  0
  6  7  1  0  0  0
  6 50  1  0  0  0
  7  8  2  0  0  0
  7 51  1  0  0  0
  8  9  1  0  0  0
  8 52  1  0  0  0
  9 10  2  0  0  0
  9 53  1  0  0  0
 10 54  1  0  0  0
 11 13  2  0  0  0
 11 17  1  0  0  0
 11 21  1  0  0  0
 12 17  1  0  0  0
 12 55  1  0  0  0
 14 19  1  0  0  0
 14 56  1  0  0  0
 14 57  1  0  0  0
 14 58  1  0  0  0
 15 19  1  0  0  0
 15 59  1  0  0  0
 15 60  1  0  0  0
 15 61  1  0  0  0
 16 19  1  0  0  0
 16 62  1  0  0  0
 16 63  1  0  0  0
 16 64  1  0  0  0
 17 18  1  0  0  0
 17 65  1  0  0  0
 18 20  1  0  0  0
 18 66  1  0  0  0
 18 67  1  0  0  0
 19 20  1  0  0  0
 21 22  1  0  0  0
 21 68  1  0  0  0
 22 23  1  0  0  0
 22 25  1  0  0  0
 22 69  1  0  0  0
 23 24  2  0  0  0
 23 35  1  0  0  0
 25 26  1  0  0  0
 25 70  1  0  0  0
 25 71  1  0  0  0
 26 27  2  0  0  0
 26 28  1  0  0  0
 27 29  1  0  0  0
 27 72  1  0  0  0
 28 30  2  0  0  0
 28 73  1  0  0  0
 29 31  2  0  0  0
 29 74  1  0  0  0
 30 31  1  0  0  0
 30 75  1  0  0  0
 31 76  1  0  0  0
 32 33  1  0  0  0
 32 46  1  0  0  0
 33 34  1  0  0  0
 33 77  1  0  0  0
 33 78  1  0  0  0
 34 79  1  0  0  0
 34 80  1  0  0  0
 34 81  1  0  0  0
 35 36  1  0  0  0
 35 82  1  0  0  0
 36 37  1  0  0  0
 36 39  1  0  0  0
 36 83  1  0  0  0
 37 38  1  0  0  0
 37 84  1  0  0  0
 37 85  1  0  0  0
 38 40  1  0  0  0
 38 44  1  0  0  0
 38 86  1  0  0  0
 39 45  1  0  0  0
 39 87  1  0  0  0
 39 88  1  0  0  0
 40 41  2  0  0  0
 40 42  1  0  0  0
 42 43  1  0  0  0
 42 89  1  0  0  0
 43 44  1  0  0  0
 43 90  1  0  0  0
 43 91  1  0  0  0
 44 92  1  0  0  0
 44 93  1  0  0  0
 45 46  1  0  0  0
 45 94  1  0  0  0
 45 95  1  0  0  0
 46 47  2  0  0  0
M  END
$$$$
