DMS_1_A_404
  -ISIS-            3D

 10  9  0  0  0  0  0  0  0  0  1 V2000
  -30.8590   14.3360   47.4440 S   0  0  0  0  0
  -30.8360   13.1400   46.5350 O   0  0  0  0  0
  -29.9870   13.7790   48.9450 C   0  0  0  0  0
  -29.8030   15.6390   46.7150 C   0  0  0  0  0
  -29.8874   14.6311   49.6480 H   0  0  0  0  0
  -28.9796   13.4017   48.6741 H   0  0  0  0  0
  -30.5698   12.9688   49.4290 H   0  0  0  0  0
  -29.7178   16.4836   47.4289 H   0  0  0  0  0
  -30.2635   15.9973   45.7717 H   0  0  0  0  0
  -28.7952   15.2264   46.5036 H   0  0  0  0  0
  1  2  2  0  0  0
  1  3  1  0  0  0
  1  4  1  0  0  0
  3  5  1  0  0  0
  3  6  1  0  0  0
  3  7  1  0  0  0
  4  8  1  0  0  0
  4  9  1  0  0  0
  4 10  1  0  0  0
M  END
$$$$
