DMS_1_A_401
  -ISIS-            3D

 10  9  0  0  0  0  0  0  0  0  1 V2000
  -16.9130   31.8400   54.3700 S   0  0  0  0  0
  -17.2720   33.0410   53.5580 O   0  0  0  0  0
  -15.1340   31.7870   54.6840 C   0  0  0  0  0
  -17.5400   32.0510   56.0530 C   0  0  0  0  0
  -14.8975   30.9226   55.3377 H   0  0  0  0  0
  -14.8101   32.7266   55.1770 H   0  0  0  0  0
  -14.5965   31.6736   53.7204 H   0  0  0  0  0
  -17.2376   31.1829   56.6736 H   0  0  0  0  0
  -18.6474   32.1116   56.0255 H   0  0  0  0  0
  -17.1317   32.9838   56.4933 H   0  0  0  0  0
  1  2  2  0  0  0
  1  3  1  0  0  0
  1  4  1  0  0  0
  3  5  1  0  0  0
  3  6  1  0  0  0
  3  7  1  0  0  0
  4  8  1  0  0  0
  4  9  1  0  0  0
  4 10  1  0  0  0
M  END
$$$$
