3HP_1_A_201
  -ISIS-            3D

 18 18  0  0  0  0  0  0  0  0  1 V2000
  -43.2170  -32.3900    2.6010 C   0  0  0  0  0
  -43.4180  -33.6030    2.6920 O   0  0  0  0  0
  -43.1480  -31.6270    3.5990 O   0  0  0  0  0
  -43.0210  -31.8680    1.2390 C   0  0  0  0  0
  -43.6940  -30.5400    1.0950 C   0  0  0  0  0
  -42.8960  -29.4210    1.1140 C   0  0  0  0  0
  -43.4870  -28.2000    0.9840 C   0  0  0  0  0
  -44.8810  -28.0670    0.8510 C   0  0  0  0  0
  -45.6890  -29.1900    0.8780 C   0  0  0  0  0
  -45.0880  -30.4410    0.9920 C   0  0  0  0  0
  -42.5830  -27.1580    0.9830 O   0  0  0  0  0
  -43.4354  -32.5671    0.4770 H   0  0  0  0  0
  -41.9327  -31.7906    1.0174 H   0  0  0  0  0
  -41.8008  -29.4952    1.2225 H   0  0  0  0  0
  -45.3366  -27.0689    0.7366 H   0  0  0  0  0
  -46.7854  -29.0982    0.7999 H   0  0  0  0  0
  -45.7162  -31.3481    1.0029 H   0  0  0  0  0
  -43.0203  -26.3215    0.9085 H   0  0  0  0  0
  1  2  2  0  0  0
  1  3  2  0  0  0
  1  4  1  0  0  0
  4  5  1  0  0  0
  4 12  1  0  0  0
  4 13  1  0  0  0
  5  6  2  0  0  0
  5 10  1  0  0  0
  6  7  1  0  0  0
  6 14  1  0  0  0
  7  8  2  0  0  0
  7 11  1  0  0  0
  8  9  1  0  0  0
  8 15  1  0  0  0
  9 10  2  0  0  0
  9 16  1  0  0  0
 10 17  1  0  0  0
 11 18  1  0  0  0
M  END
$$$$
