DMS_1_A_406
  -ISIS-            3D

 10  9  0  0  0  0  0  0  0  0  1 V2000
   26.8220   -3.3620   25.1770 S   0  0  0  0  0
   26.5900   -4.6670   24.4340 O   0  0  0  0  0
   27.8570   -2.2720   24.1800 C   0  0  0  0  0
   25.2940   -2.3880   25.3750 C   0  0  0  0  0
   28.0270   -1.3213   24.7253 H   0  0  0  0  0
   27.3560   -2.0612   23.2131 H   0  0  0  0  0
   28.8327   -2.7640   23.9895 H   0  0  0  0  0
   25.5235   -1.4475   25.9163 H   0  0  0  0  0
   24.5574   -2.9779   25.9578 H   0  0  0  0  0
   24.8714   -2.1512   24.3771 H   0  0  0  0  0
  1  2  2  0  0  0
  1  3  1  0  0  0
  1  4  1  0  0  0
  3  5  1  0  0  0
  3  6  1  0  0  0
  3  7  1  0  0  0
  4  8  1  0  0  0
  4  9  1  0  0  0
  4 10  1  0  0  0
M  END
$$$$
