DMS_2_A_403
  -ISIS-            3D

 10  9  0  0  0  0  0  0  0  0  1 V2000
  -15.7910  -45.2760   25.7560 S   0  0  0  0  0
  -14.9240  -46.4790   25.5580 O   0  0  0  0  0
  -17.2600  -45.4030   24.6980 C   0  0  0  0  0
  -16.5990  -45.3790   27.3760 C   0  0  0  0  0
  -17.9387  -44.5493   24.9001 H   0  0  0  0  0
  -17.7893  -46.3566   24.9005 H   0  0  0  0  0
  -16.9471  -45.3761   23.6342 H   0  0  0  0  0
  -17.2985  -44.5268   27.4976 H   0  0  0  0  0
  -15.8281  -45.3341   28.1722 H   0  0  0  0  0
  -17.1569  -46.3342   27.4594 H   0  0  0  0  0
  1  2  2  0  0  0
  1  3  1  0  0  0
  1  4  1  0  0  0
  3  5  1  0  0  0
  3  6  1  0  0  0
  3  7  1  0  0  0
  4  8  1  0  0  0
  4  9  1  0  0  0
  4 10  1  0  0  0
M  END
$$$$
