DMS_2_A_405
  -ISIS-            3D

 10  9  0  0  0  0  0  0  0  0  1 V2000
  -11.0110  -45.5500   42.7900 S   0  0  0  0  0
  -11.7110  -45.7550   41.4860 O   0  0  0  0  0
   -9.4180  -44.7410   42.4880 C   0  0  0  0  0
  -11.8890  -44.2910   43.7580 C   0  0  0  0  0
   -8.9182  -44.5346   43.4564 H   0  0  0  0  0
   -9.5781  -43.7890   41.9415 H   0  0  0  0  0
   -8.7762  -45.4112   41.8804 H   0  0  0  0  0
  -11.3358  -44.0956   44.6993 H   0  0  0  0  0
  -12.9065  -44.6598   44.0008 H   0  0  0  0  0
  -11.9672  -43.3533   43.1706 H   0  0  0  0  0
  1  2  2  0  0  0
  1  3  1  0  0  0
  1  4  1  0  0  0
  3  5  1  0  0  0
  3  6  1  0  0  0
  3  7  1  0  0  0
  4  8  1  0  0  0
  4  9  1  0  0  0
  4 10  1  0  0  0
M  END
$$$$
