DMS_2_A_402
  -ISIS-            3D

 10  9  0  0  0  0  0  0  0  0  1 V2000
   -6.1250   -1.0180    6.2360 S   0  0  0  0  0
   -7.1110   -0.6930    7.3160 O   0  0  0  0  0
   -7.0590   -1.0470    4.7090 C   0  0  0  0  0
   -5.8020   -2.7600    6.3210 C   0  0  0  0  0
   -6.4163   -1.4122    3.8819 H   0  0  0  0  0
   -7.4002   -0.0189    4.4704 H   0  0  0  0  0
   -7.9446   -1.7072    4.8105 H   0  0  0  0  0
   -5.1908   -3.0735    5.4500 H   0  0  0  0  0
   -6.7533   -3.3304    6.3305 H   0  0  0  0  0
   -5.2395   -2.9828    7.2508 H   0  0  0  0  0
  1  2  2  0  0  0
  1  3  1  0  0  0
  1  4  1  0  0  0
  3  5  1  0  0  0
  3  6  1  0  0  0
  3  7  1  0  0  0
  4  8  1  0  0  0
  4  9  1  0  0  0
  4 10  1  0  0  0
M  END
$$$$
