H35_1_A_201
  -ISIS-            3D

 25 27  0  0  0  0  0  0  0  0  1 V2000
  -50.7880  -31.7130    8.2300 C   0  0  0  0  0
  -50.9550  -33.0040    7.7430 C   0  0  0  0  0
  -50.6960  -32.9710    6.4000 C   0  0  0  0  0
  -50.4010  -31.7130    6.0670 O   0  0  0  0  0
  -50.4290  -30.9320    7.1630 C   0  0  0  0  0
  -50.1310  -29.4330    7.1880 C   0  0  0  0  0
  -48.6990  -29.2050    7.1980 N   0  0  0  0  0
  -47.9740  -29.2670    5.9380 C   0  0  0  0  0
  -48.5870  -29.1560    4.7980 N   0  0  0  0  0
  -47.9510  -29.2160    3.6610 C   0  0  0  0  0
  -46.6450  -29.3550    3.5830 N   0  0  0  0  0
  -45.9590  -29.4520    4.7150 C   0  0  0  0  0
  -46.6000  -29.3880    5.9220 C   0  0  0  0  0
  -45.6810  -29.5100    6.8840 N   0  0  0  0  0
  -44.5360  -29.6120    6.2800 C   0  0  0  0  0
  -44.6660  -29.5790    4.9710 N   0  0  0  0  0
  -50.9157  -31.3879    9.2696 H   0  0  0  0  0
  -51.2392  -33.8871    8.3284 H   0  0  0  0  0
  -50.6836  -33.6898    5.5794 H   0  0  0  0  0
  -50.3799  -28.9348    8.1423 H   0  0  0  0  0
  -50.3219  -28.9497    6.2160 H   0  0  0  0  0
  -48.1717  -29.0627    8.0714 H   0  0  0  0  0
  -48.5296  -29.1295    2.7272 H   0  0  0  0  0
  -43.5390  -29.7239    6.7245 H   0  0  0  0  0
  -43.6980  -29.6656    4.0826 H   0  0  0  0  0
  1  2  1  0  0  0
  1  5  2  0  0  0
  1 17  1  0  0  0
  2  3  2  0  0  0
  2 18  1  0  0  0
  3  4  1  0  0  0
  3 19  1  0  0  0
  4  5  1  0  0  0
  5  6  1  0  0  0
  6  7  1  0  0  0
  6 20  1  0  0  0
  6 21  1  0  0  0
  7  8  1  0  0  0
  7 22  1  0  0  0
  8  9  2  0  0  0
  8 13  1  0  0  0
  9 10  1  0  0  0
 10 11  2  0  0  0
 10 23  1  0  0  0
 11 12  1  0  0  0
 12 13  2  0  0  0
 12 16  1  0  0  0
 13 14  1  0  0  0
 14 15  1  0  0  0
 15 16  1  0  0  0
 15 24  1  0  0  0
 16 25  1  0  0  0
M  END
$$$$
