BNZ_2_A_602
  -ISIS-            3D

 12 12  0  0  0  0  0  0  0  0  1 V2000
  -35.1450   -1.7070   32.8820 C   0  0  0  0  0
  -34.6210   -2.9760   33.4600 C   0  0  0  0  0
  -33.3540   -3.0470   33.9230 C   0  0  0  0  0
  -32.4740   -1.8460   33.8560 C   0  0  0  0  0
  -32.9470   -0.6880   33.3300 C   0  0  0  0  0
  -34.3430   -0.6130   32.8200 C   0  0  0  0  0
  -36.1824   -1.6691   32.5090 H   0  0  0  0  0
  -35.2832   -3.8573   33.5042 H   0  0  0  0  0
  -32.9595   -3.9837   34.3519 H   0  0  0  0  0
  -31.4407   -1.9117   34.2368 H   0  0  0  0  0
  -32.3048    0.2073   33.2747 H   0  0  0  0  0
  -34.7138    0.3351   32.3950 H   0  0  0  0  0
  1  2  1  0  0  0
  1  6  1  0  0  0
  1  7  1  0  0  0
  2  3  1  0  0  0
  2  8  1  0  0  0
  3  4  1  0  0  0
  3  9  1  0  0  0
  4  5  1  0  0  0
  4 10  1  0  0  0
  5  6  1  0  0  0
  5 11  1  0  0  0
  6 12  1  0  0  0
M  END
$$$$
