07L_1_A_201
  -ISIS-            3D

 20 21  0  0  0  0  0  0  0  0  1 V2000
  -53.9470  -29.1070    6.2680 O   0  0  0  0  0
  -52.7610  -29.1520    6.2060 C   0  0  0  0  0
  -52.0050  -29.2440    7.4840 C   0  0  0  0  0
  -50.5750  -29.0070    7.4470 C   0  0  0  0  0
  -49.8400  -29.0510    6.1240 C   0  0  0  0  0
  -52.0420  -29.1150    4.9540 O   0  0  0  0  0
  -50.5800  -29.1050    4.9180 C   0  0  0  0  0
  -49.9070  -29.1460    3.7100 C   0  0  0  0  0
  -48.5210  -29.1420    3.6680 C   0  0  0  0  0
  -47.9060  -29.2050    2.4130 O   0  0  0  0  0
  -47.7680  -29.0820    4.8520 C   0  0  0  0  0
  -48.4330  -29.0400    6.0880 C   0  0  0  0  0
  -52.1739  -30.2792    7.8632 H   0  0  0  0  0
  -52.4808  -28.5872    8.2476 H   0  0  0  0  0
  -50.0679  -29.7069    8.1521 H   0  0  0  0  0
  -50.3832  -27.9897    7.8650 H   0  0  0  0  0
  -50.4976  -29.1874    2.7791 H   0  0  0  0  0
  -48.5195  -29.2440    1.6935 H   0  0  0  0  0
  -46.6665  -29.0739    4.8069 H   0  0  0  0  0
  -47.8492  -28.9974    7.0228 H   0  0  0  0  0
  1  2  2  0  0  0
  2  3  1  0  0  0
  2  6  1  0  0  0
  3  4  1  0  0  0
  3 13  1  0  0  0
  3 14  1  0  0  0
  4  5  1  0  0  0
  4 15  1  0  0  0
  4 16  1  0  0  0
  5  7  2  0  0  0
  5 12  1  0  0  0
  6  7  1  0  0  0
  7  8  1  0  0  0
  8  9  2  0  0  0
  8 17  1  0  0  0
  9 10  1  0  0  0
  9 11  1  0  0  0
 10 18  1  0  0  0
 11 12  2  0  0  0
 11 19  1  0  0  0
 12 20  1  0  0  0
M  END
$$$$
