DMS_2_A_403
  -ISIS-            3D

 10  9  0  0  0  0  0  0  0  0  1 V2000
   -2.5230  -18.7660   -8.0590 S   0  0  0  0  0
   -3.7560  -18.8880   -9.0100 O   0  0  0  0  0
   -1.1530  -18.3990   -9.1420 C   0  0  0  0  0
   -2.0920  -20.4150   -7.6690 C   0  0  0  0  0
   -0.2008  -18.4571   -8.5761 H   0  0  0  0  0
   -1.2696  -17.3714   -9.5430 H   0  0  0  0  0
   -1.1256  -19.1163   -9.9877 H   0  0  0  0  0
   -1.1216  -20.4356   -7.1320 H   0  0  0  0  0
   -2.0146  -21.0268   -8.5911 H   0  0  0  0  0
   -2.8708  -20.8534   -7.0120 H   0  0  0  0  0
  1  2  2  0  0  0
  1  3  1  0  0  0
  1  4  1  0  0  0
  3  5  1  0  0  0
  3  6  1  0  0  0
  3  7  1  0  0  0
  4  8  1  0  0  0
  4  9  1  0  0  0
  4 10  1  0  0  0
M  END
$$$$
