DMS_1_A_402
  -ISIS-            3D

 10  9  0  0  0  0  0  0  0  0  1 V2000
    6.2300   -1.0260   -6.2330 S   0  0  0  0  0
    7.1950   -0.7060   -7.3130 O   0  0  0  0  0
    7.1450   -0.9970   -4.6870 C   0  0  0  0  0
    5.9160   -2.7760   -6.2820 C   0  0  0  0  0
    6.4937   -1.3452   -3.8592 H   0  0  0  0  0
    7.4712    0.0418   -4.4756 H   0  0  0  0  0
    8.0384   -1.6505   -4.7573 H   0  0  0  0  0
    5.2973   -3.0720   -5.4100 H   0  0  0  0  0
    6.8711   -3.3396   -6.2670 H   0  0  0  0  0
    5.3653   -3.0232   -7.2127 H   0  0  0  0  0
  1  2  2  0  0  0
  1  3  1  0  0  0
  1  4  1  0  0  0
  3  5  1  0  0  0
  3  6  1  0  0  0
  3  7  1  0  0  0
  4  8  1  0  0  0
  4  9  1  0  0  0
  4 10  1  0  0  0
M  END
$$$$
