DMS_1_A_403
  -ISIS-            3D

 10  9  0  0  0  0  0  0  0  0  1 V2000
    2.1840  -19.1550    8.2350 S   0  0  0  0  0
    3.5060  -18.9150    8.8380 O   0  0  0  0  0
    1.1180  -17.9590    9.0030 C   0  0  0  0  0
    1.5900  -20.6100    9.0670 C   0  0  0  0  0
    0.0620  -18.1762    8.7424 H   0  0  0  0  0
    1.3768  -16.9455    8.6339 H   0  0  0  0  0
    1.2381  -17.9842   10.1056 H   0  0  0  0  0
    0.5252  -20.7812    8.8080 H   0  0  0  0  0
    1.6879  -20.4952   10.1662 H   0  0  0  0  0
    2.1837  -21.4882    8.7404 H   0  0  0  0  0
  1  2  2  0  0  0
  1  3  1  0  0  0
  1  4  1  0  0  0
  3  5  1  0  0  0
  3  6  1  0  0  0
  3  7  1  0  0  0
  4  8  1  0  0  0
  4  9  1  0  0  0
  4 10  1  0  0  0
M  END
$$$$
