DMS_1_A_402
  -ISIS-            3D

 10  9  0  0  0  0  0  0  0  0  1 V2000
  -29.7720   -3.3480    2.7790 S   0  0  0  0  0
  -29.6470   -2.8240    4.1740 O   0  0  0  0  0
  -31.2000   -4.4610    2.6770 C   0  0  0  0  0
  -30.3340   -2.0170    1.6830 C   0  0  0  0  0
  -31.3352   -4.7964    1.6284 H   0  0  0  0  0
  -32.1136   -3.9338    3.0203 H   0  0  0  0  0
  -31.0214   -5.3448    3.3229 H   0  0  0  0  0
  -30.4931   -2.4193    0.6617 H   0  0  0  0  0
  -29.5606   -1.2228    1.6462 H   0  0  0  0  0
  -31.2825   -1.5886    2.0667 H   0  0  0  0  0
  1  2  2  0  0  0
  1  3  1  0  0  0
  1  4  1  0  0  0
  3  5  1  0  0  0
  3  6  1  0  0  0
  3  7  1  0  0  0
  4  8  1  0  0  0
  4  9  1  0  0  0
  4 10  1  0  0  0
M  END
$$$$
