DMS_1_A_402
  -ISIS-            3D

 10  9  0  0  0  0  0  0  0  0  1 V2000
    6.1390   -0.9810   -6.0810 S   0  0  0  0  0
    6.7900   -0.7530   -7.4120 O   0  0  0  0  0
    7.4280   -0.8270   -4.8700 C   0  0  0  0  0
    5.8780   -2.7210   -5.9390 C   0  0  0  0  0
    7.0433   -1.1187   -3.8713 H   0  0  0  0  0
    7.7672    0.2283   -4.8282 H   0  0  0  0  0
    8.2895   -1.4726   -5.1374 H   0  0  0  0  0
    5.5279   -2.9678   -4.9158 H   0  0  0  0  0
    6.8166   -3.2728   -6.1510 H   0  0  0  0  0
    5.1028   -3.0365   -6.6670 H   0  0  0  0  0
  1  2  2  0  0  0
  1  3  1  0  0  0
  1  4  1  0  0  0
  3  5  1  0  0  0
  3  6  1  0  0  0
  3  7  1  0  0  0
  4  8  1  0  0  0
  4  9  1  0  0  0
  4 10  1  0  0  0
M  END
$$$$
