DMS_2_A_403
  -ISIS-            3D

 10  9  0  0  0  0  0  0  0  0  1 V2000
   -2.2340  -19.2220   -8.0780 S   0  0  0  0  0
   -3.5500  -18.9420   -8.7640 O   0  0  0  0  0
   -1.0030  -18.2990   -8.9670 C   0  0  0  0  0
   -1.7380  -20.8450   -8.6150 C   0  0  0  0  0
    0.0089  -18.5760   -8.6064 H   0  0  0  0  0
   -1.1608  -17.2151   -8.7916 H   0  0  0  0  0
   -1.0769  -18.5028  -10.0546 H   0  0  0  0  0
   -0.7075  -21.0589   -8.2643 H   0  0  0  0  0
   -1.7745  -20.9144   -9.7213 H   0  0  0  0  0
   -2.4268  -21.5995   -8.1831 H   0  0  0  0  0
  1  2  2  0  0  0
  1  3  1  0  0  0
  1  4  1  0  0  0
  3  5  1  0  0  0
  3  6  1  0  0  0
  3  7  1  0  0  0
  4  8  1  0  0  0
  4  9  1  0  0  0
  4 10  1  0  0  0
M  END
$$$$
