DMS_1_A_401
  -ISIS-            3D

 10  9  0  0  0  0  0  0  0  0  1 V2000
    6.7620  -27.9340   21.5350 S   0  0  0  0  0
    7.8300  -27.2480   22.3250 O   0  0  0  0  0
    5.5440  -28.4650   22.7080 C   0  0  0  0  0
    5.7980  -26.6540   20.7820 C   0  0  0  0  0
    4.6530  -28.8567   22.1760 H   0  0  0  0  0
    5.2425  -27.6222   23.3634 H   0  0  0  0  0
    5.9688  -29.2747   23.3359 H   0  0  0  0  0
    4.9011  -27.0918   20.2981 H   0  0  0  0  0
    6.4072  -26.1437   20.0081 H   0  0  0  0  0
    5.4821  -25.9084   21.5403 H   0  0  0  0  0
  1  2  2  0  0  0
  1  3  1  0  0  0
  1  4  1  0  0  0
  3  5  1  0  0  0
  3  6  1  0  0  0
  3  7  1  0  0  0
  4  8  1  0  0  0
  4  9  1  0  0  0
  4 10  1  0  0  0
M  END
$$$$
