DMS_1_A_402
  -ISIS-            3D

 10  9  0  0  0  0  0  0  0  0  1 V2000
    6.1960   -0.9880   -6.3280 S   0  0  0  0  0
    7.1180   -0.8520   -7.5200 O   0  0  0  0  0
    7.2550   -0.8750   -4.8970 C   0  0  0  0  0
    5.8040   -2.7040   -6.1750 C   0  0  0  0  0
    6.6748   -1.1056   -3.9801 H   0  0  0  0  0
    7.6534    0.1572   -4.8179 H   0  0  0  0  0
    8.1038   -1.5835   -4.9866 H   0  0  0  0  0
    5.2567   -2.8835   -5.2270 H   0  0  0  0  0
    6.7287   -3.3166   -6.1898 H   0  0  0  0  0
    5.1574   -3.0090   -7.0232 H   0  0  0  0  0
  1  2  2  0  0  0
  1  3  1  0  0  0
  1  4  1  0  0  0
  3  5  1  0  0  0
  3  6  1  0  0  0
  3  7  1  0  0  0
  4  8  1  0  0  0
  4  9  1  0  0  0
  4 10  1  0  0  0
M  END
$$$$
