DMS_1_A_401
  -ISIS-            3D

 10  9  0  0  0  0  0  0  0  0  1 V2000
    7.1360  -27.9800   21.5330 S   0  0  0  0  0
    7.8330  -26.9410   22.3140 O   0  0  0  0  0
    5.8440  -28.5970   22.5870 C   0  0  0  0  0
    6.1060  -27.1520   20.3670 C   0  0  0  0  0
    5.1935  -29.2924   22.0181 H   0  0  0  0  0
    5.2334  -27.7595   22.9825 H   0  0  0  0  0
    6.2964  -29.1466   23.4378 H   0  0  0  0  0
    5.4529  -27.8856   19.8516 H   0  0  0  0  0
    6.7405  -26.6469   19.6102 H   0  0  0  0  0
    5.4777  -26.3914   20.8744 H   0  0  0  0  0
  1  2  2  0  0  0
  1  3  1  0  0  0
  1  4  1  0  0  0
  3  5  1  0  0  0
  3  6  1  0  0  0
  3  7  1  0  0  0
  4  8  1  0  0  0
  4  9  1  0  0  0
  4 10  1  0  0  0
M  END
$$$$
