DMS_2_A_403
  -ISIS-            3D

 10  9  0  0  0  0  0  0  0  0  1 V2000
   -2.2750  -19.0230   -8.2540 S   0  0  0  0  0
   -3.4880  -18.5780   -8.9660 O   0  0  0  0  0
   -0.9610  -17.9850   -8.8220 C   0  0  0  0  0
   -1.7940  -20.5130   -9.1020 C   0  0  0  0  0
    0.0111  -18.3741   -8.4562 H   0  0  0  0  0
   -1.1066  -16.9589   -8.4267 H   0  0  0  0  0
   -0.9487  -17.9457   -9.9307 H   0  0  0  0  0
   -0.8011  -20.8480   -8.7385 H   0  0  0  0  0
   -1.7465  -20.3380  -10.1966 H   0  0  0  0  0
   -2.5379  -21.3094   -8.8951 H   0  0  0  0  0
  1  2  2  0  0  0
  1  3  1  0  0  0
  1  4  1  0  0  0
  3  5  1  0  0  0
  3  6  1  0  0  0
  3  7  1  0  0  0
  4  8  1  0  0  0
  4  9  1  0  0  0
  4 10  1  0  0  0
M  END
$$$$
