POL_1_R_603
  -ISIS-            3D

 12 11  0  0  0  0  0  0  0  0  1 V2000
  -71.7650   30.2700   56.2490 O   0  0  0  0  0
  -72.3330   31.5670   56.2630 C   0  0  0  0  0
  -71.3920   32.5460   56.7460 C   0  0  0  0  0
  -71.9950   33.9300   56.8110 C   0  0  0  0  0
  -72.4143   29.6596   55.9247 H   0  0  0  0  0
  -73.2420   31.5520   56.9040 H   0  0  0  0  0
  -72.6697   31.8244   55.2346 H   0  0  0  0  0
  -70.4925   32.5689   56.0888 H   0  0  0  0  0
  -71.0311   32.2601   57.7608 H   0  0  0  0  0
  -71.2581   34.6768   57.1836 H   0  0  0  0  0
  -72.8721   33.9705   57.4954 H   0  0  0  0  0
  -72.3368   34.2821   55.8117 H   0  0  0  0  0
  1  2  1  0  0  0
  1  5  1  0  0  0
  2  3  1  0  0  0
  2  6  1  0  0  0
  2  7  1  0  0  0
  3  4  1  0  0  0
  3  8  1  0  0  0
  3  9  1  0  0  0
  4 10  1  0  0  0
  4 11  1  0  0  0
  4 12  1  0  0  0
M  END
$$$$
