POL_1_R_604
  -ISIS-            3D

 12 11  0  0  0  0  0  0  0  0  1 V2000
  -73.7650   29.2690   59.2180 O   0  0  0  0  0
  -73.5460   30.5870   59.6960 C   0  0  0  0  0
  -74.7320   31.3900   59.5580 C   0  0  0  0  0
  -74.6030   32.7430   60.2190 C   0  0  0  0  0
  -74.2850   28.7961   59.8546 H   0  0  0  0  0
  -72.7018   31.0320   59.1267 H   0  0  0  0  0
  -73.2160   30.5351   60.7568 H   0  0  0  0  0
  -75.6050   30.8639   60.0091 H   0  0  0  0  0
  -74.9770   31.5281   58.4798 H   0  0  0  0  0
  -75.5289   33.3481   60.0912 H   0  0  0  0  0
  -73.7649   33.3360   59.7885 H   0  0  0  0  0
  -74.4202   32.6562   61.3137 H   0  0  0  0  0
  1  2  1  0  0  0
  1  5  1  0  0  0
  2  3  1  0  0  0
  2  6  1  0  0  0
  2  7  1  0  0  0
  3  4  1  0  0  0
  3  8  1  0  0  0
  3  9  1  0  0  0
  4 10  1  0  0  0
  4 11  1  0  0  0
  4 12  1  0  0  0
M  END
$$$$
