DMS_2_A_401
  -ISIS-            3D

 10  9  0  0  0  0  0  0  0  0  1 V2000
   -6.9730  -27.9610  -21.5050 S   0  0  0  0  0
   -7.6860  -27.0000  -22.3810 O   0  0  0  0  0
   -5.7220  -28.7080  -22.5110 C   0  0  0  0  0
   -5.8950  -27.0090  -20.4860 C   0  0  0  0  0
   -5.0577  -29.3364  -21.8833 H   0  0  0  0  0
   -5.1191  -27.9300  -23.0231 H   0  0  0  0  0
   -6.2026  -29.3516  -23.2760 H   0  0  0  0  0
   -5.2278  -27.6814  -19.9091 H   0  0  0  0  0
   -6.4977  -26.4094  -19.7736 H   0  0  0  0  0
   -5.2813  -26.3216  -21.1039 H   0  0  0  0  0
  1  2  2  0  0  0
  1  3  1  0  0  0
  1  4  1  0  0  0
  3  5  1  0  0  0
  3  6  1  0  0  0
  3  7  1  0  0  0
  4  8  1  0  0  0
  4  9  1  0  0  0
  4 10  1  0  0  0
M  END
$$$$
