LSA_1_A_201
  -ISIS-            3D

 17 18  0  0  0  0  0  0  0  0  1 V2000
  -46.6190  -35.6960   -1.5430 C   0  0  0  0  0
  -46.4380  -34.9550   -0.3740 C   0  0  0  0  0
  -45.4100  -34.0260   -0.2960 C   0  0  0  0  0
  -43.4330  -32.6750   -1.0240 C   0  0  0  0  0
  -45.7700  -35.5080   -2.6410 C   0  0  0  0  0
  -44.9140  -33.0160    0.9830 S   0  0  0  0  0
  -43.7060  -32.1780    0.3920 N   0  0  0  0  0
  -42.6150  -32.3690   -1.8240 O   0  0  0  0  0
  -44.5570  -33.8590   -1.4000 C   0  0  0  0  0
  -44.7360  -34.5730   -2.5760 C   0  0  0  0  0
  -45.9210  -32.0390    1.3340 O   0  0  0  0  0
  -44.4250  -33.7990    2.0810 O   0  0  0  0  0
  -47.4363  -36.4345   -1.6032 H   0  0  0  0  0
  -47.1136  -35.1094    0.4841 H   0  0  0  0  0
  -45.9220  -36.0969   -3.5612 H   0  0  0  0  0
  -43.1762  -31.4382    0.8599 H   0  0  0  0  0
  -44.0691  -34.4067   -3.4372 H   0  0  0  0  0
  1  2  2  0  0  0
  1  5  1  0  0  0
  1 13  1  0  0  0
  2  3  1  0  0  0
  2 14  1  0  0  0
  3  6  1  0  0  0
  3  9  2  0  0  0
  4  7  1  0  0  0
  4  8  2  0  0  0
  4  9  1  0  0  0
  5 10  2  0  0  0
  5 15  1  0  0  0
  6  7  1  0  0  0
  6 11  2  0  0  0
  6 12  2  0  0  0
  7 16  1  0  0  0
  9 10  1  0  0  0
 10 17  1  0  0  0
M  END
$$$$
