G75_1_A_307
  -ISIS-            3D

 72 74  0  0  0  0  0  0  0  0  1 V2000
  -15.5750   -3.5390  -26.4080 O   0  0  0  0  0
  -16.2060   -3.7710  -25.3850 C   0  0  0  0  0
  -17.6570   -3.6600  -25.4760 O   0  0  0  0  0
  -18.2520   -3.2290  -26.6990 C   0  0  0  0  0
  -18.0690   -1.7290  -26.8510 C   0  0  0  0  0
  -15.5440   -4.1640  -24.0610 C   0  0  0  0  0
  -14.2850   -3.3570  -23.6670 C   0  0  0  0  0
  -14.5460   -1.8640  -23.8560 C   0  0  0  0  0
  -13.2380   -1.0560  -23.8630 C   0  0  0  0  0
  -13.5220    0.3580  -24.3390 C   0  0  0  0  0
  -12.2760    1.1780  -24.4650 C   0  0  0  0  0
  -11.3820    1.2140  -23.6370 O   0  0  0  0  0
  -12.3280    1.8870  -25.5950 N   0  0  0  0  0
  -13.4850    1.6500  -26.4480 C   0  0  0  0  0
  -14.0410    0.3900  -25.7770 C   0  0  0  0  0
  -15.3450   -1.4580  -22.7000 N   0  0  0  0  0
  -16.5640   -0.9230  -22.8500 C   0  0  0  0  0
  -17.0750   -0.6830  -23.9310 O   0  0  0  0  0
  -17.3060   -0.5320  -21.6080 C   0  0  0  0  0
  -18.3950   -1.4750  -21.1120 C   0  0  0  0  0
  -18.7570   -0.7570  -19.8270 C   0  0  0  0  0
  -19.8570    0.1070  -19.7610 C   0  0  0  0  0
  -20.1640    0.7840  -18.5850 C   0  0  0  0  0
  -19.3470    0.6060  -17.4720 C   0  0  0  0  0
  -18.2440   -0.2390  -17.5330 C   0  0  0  0  0
  -17.9420   -0.9150  -18.7080 C   0  0  0  0  0
  -18.0610    0.6640  -21.8960 N   0  0  0  0  0
  -17.4230    1.8080  -22.0110 C   0  0  0  0  0
  -16.2110    1.8830  -21.8810 O   0  0  0  0  0
  -18.1900    2.9940  -22.3490 O   0  0  0  0  0
  -17.5270    4.1250  -22.9260 C   0  0  0  0  0
  -17.0830    3.9620  -24.3720 C   0  0  0  0  0
  -16.2590    4.9480  -24.9230 C   0  0  0  0  0
  -15.8280    4.8600  -26.2480 C   0  0  0  0  0
  -16.2240    3.7780  -27.0390 C   0  0  0  0  0
  -17.0470    2.7860  -26.4960 C   0  0  0  0  0
  -17.4750    2.8760  -25.1670 C   0  0  0  0  0
  -19.3358   -3.4694  -26.6859 H   0  0  0  0  0
  -17.8219   -3.7652  -27.5704 H   0  0  0  0  0
  -18.5227   -1.3640  -27.7981 H   0  0  0  0  0
  -17.0006   -1.4263  -26.8698 H   0  0  0  0  0
  -18.5605   -1.1716  -26.0249 H   0  0  0  0  0
  -15.2786   -5.2439  -24.1097 H   0  0  0  0  0
  -16.3015   -4.0707  -23.2509 H   0  0  0  0  0
  -13.4513   -3.6738  -24.3360 H   0  0  0  0  0
  -13.9657   -3.5965  -22.6274 H   0  0  0  0  0
  -15.0786   -1.6984  -24.8151 H   0  0  0  0  0
  -12.4968   -1.5344  -24.5439 H   0  0  0  0  0
  -12.7801   -1.0472  -22.8476 H   0  0  0  0  0
  -14.2307    0.8834  -23.6574 H   0  0  0  0  0
  -11.5821    2.5538  -25.8322 H   0  0  0  0  0
  -13.2164    1.4732  -27.5131 H   0  0  0  0  0
  -14.2042    2.4918  -26.3851 H   0  0  0  0  0
  -15.1534    0.3798  -25.8201 H   0  0  0  0  0
  -13.6774   -0.5008  -26.3408 H   0  0  0  0  0
  -14.9548   -1.5779  -21.7546 H   0  0  0  0  0
  -16.5573   -0.3472  -20.8013 H   0  0  0  0  0
  -17.9862   -2.4896  -20.9074 H   0  0  0  0  0
  -19.2476   -1.5818  -21.8181 H   0  0  0  0  0
  -20.5165    0.2513  -20.6333 H   0  0  0  0  0
  -21.0395    1.4532  -18.5348 H   0  0  0  0  0
  -19.5768    1.1398  -16.5339 H   0  0  0  0  0
  -17.6041   -0.3700  -16.6435 H   0  0  0  0  0
  -17.0595   -1.5769  -18.7388 H   0  0  0  0  0
  -19.0731    0.6612  -22.0679 H   0  0  0  0  0
  -16.6509    4.4058  -22.3045 H   0  0  0  0  0
  -18.2180    4.9931  -22.8815 H   0  0  0  0  0
  -15.9405    5.8094  -24.3110 H   0  0  0  0  0
  -15.1771    5.6443  -26.6707 H   0  0  0  0  0
  -15.8898    3.7067  -28.0882 H   0  0  0  0  0
  -17.3605    1.9283  -27.1154 H   0  0  0  0  0
  -18.1225    2.0846  -24.7552 H   0  0  0  0  0
  1  2  2  0  0  0
  2  3  1  0  0  0
  2  6  1  0  0  0
  3  4  1  0  0  0
  4  5  1  0  0  0
  4 38  1  0  0  0
  4 39  1  0  0  0
  5 40  1  0  0  0
  5 41  1  0  0  0
  5 42  1  0  0  0
  6  7  1  0  0  0
  6 43  1  0  0  0
  6 44  1  0  0  0
  7  8  1  0  0  0
  7 45  1  0  0  0
  7 46  1  0  0  0
  8  9  1  0  0  0
  8 16  1  0  0  0
  8 47  1  0  0  0
  9 10  1  0  0  0
  9 48  1  0  0  0
  9 49  1  0  0  0
 10 11  1  0  0  0
 10 15  1  0  0  0
 10 50  1  0  0  0
 11 12  2  0  0  0
 11 13  1  0  0  0
 13 14  1  0  0  0
 13 51  1  0  0  0
 14 15  1  0  0  0
 14 52  1  0  0  0
 14 53  1  0  0  0
 15 54  1  0  0  0
 15 55  1  0  0  0
 16 17  1  0  0  0
 16 56  1  0  0  0
 17 18  2  0  0  0
 17 19  1  0  0  0
 19 20  1  0  0  0
 19 27  1  0  0  0
 19 57  1  0  0  0
 20 21  1  0  0  0
 20 58  1  0  0  0
 20 59  1  0  0  0
 21 22  2  0  0  0
 21 26  1  0  0  0
 22 23  1  0  0  0
 22 60  1  0  0  0
 23 24  2  0  0  0
 23 61  1  0  0  0
 24 25  1  0  0  0
 24 62  1  0  0  0
 25 26  2  0  0  0
 25 63  1  0  0  0
 26 64  1  0  0  0
 27 28  1  0  0  0
 27 65  1  0  0  0
 28 29  2  0  0  0
 28 30  1  0  0  0
 30 31  1  0  0  0
 31 32  1  0  0  0
 31 66  1  0  0  0
 31 67  1  0  0  0
 32 33  2  0  0  0
 32 37  1  0  0  0
 33 34  1  0  0  0
 33 68  1  0  0  0
 34 35  2  0  0  0
 34 69  1  0  0  0
 35 36  1  0  0  0
 35 70  1  0  0  0
 36 37  2  0  0  0
 36 71  1  0  0  0
 37 72  1  0  0  0
M  END
$$$$
