SAM_1_A_7102
  -ISIS-            3D

 50 52  0  0  0  0  0  0  0  0  1 V2000
   81.9760   19.2480   24.2410 N   0  3  0  0  0
   80.6450   18.7210   24.6380 C   0  0  0  0  0
   79.5490   19.5450   23.9440 C   0  0  0  0  0
   79.8160   19.9730   22.8010 O   0  0  0  0  0
   78.4640   19.6990   24.5380 O   0  0  0  0  0
   80.5040   18.7460   26.1660 C   0  0  0  0  0
   81.5900   17.9120   26.8480 C   0  0  0  0  0
   81.3190   17.6670   28.6190 S   0  0  0  0  0
   81.6170   19.3120   29.2440 C   0  0  0  0  0
   82.8780   16.8310   29.0240 C   0  0  0  0  0
   83.0140   15.4580   28.3890 C   0  0  0  0  0
   84.3220   14.9150   28.6840 O   0  0  0  0  0
   82.0070   14.4070   28.8740 C   0  0  0  0  0
   81.1630   13.9960   27.8020 O   0  0  0  0  0
   82.8840   13.2610   29.4040 C   0  0  0  0  0
   82.3610   11.9820   29.1170 O   0  0  0  0  0
   84.2000   13.5140   28.6780 C   0  0  0  0  0
   85.3640   12.9020   29.3150 N   0  0  0  0  0
   85.7900   13.0790   30.6100 C   0  0  0  0  0
   86.8530   12.3730   30.9120 N   0  0  0  0  0
   87.1470   11.6740   29.7490 C   0  0  0  0  0
   88.1610   10.7470   29.4290 C   0  0  0  0  0
   89.0940   10.3410   30.2880 N   0  0  0  0  0
   88.1650   10.2300   28.1770 N   0  0  0  0  0
   87.2210   10.6370   27.3180 C   0  0  0  0  0
   86.2220   11.4970   27.5070 N   0  0  0  0  0
   86.2360   11.9900   28.7580 C   0  0  0  0  0
   82.7257   18.6664   24.6004 H   0  0  0  0  0
   82.1097   20.1950   24.5848 H   0  0  0  0  0
   80.5505   17.6684   24.2778 H   0  0  0  0  0
   79.5060   18.3369   26.4472 H   0  0  0  0  0
   80.5392   19.7963   26.5346 H   0  0  0  0  0
   82.5915   18.3762   26.7132 H   0  0  0  0  0
   81.6189   16.9081   26.3701 H   0  0  0  0  0
   81.6856   19.2918   30.3532 H   0  0  0  0  0
   80.7816   19.9931   28.9744 H   0  0  0  0  0
   82.5588   19.7534   28.8533 H   0  0  0  0  0
   82.9455   16.7472   30.1310 H   0  0  0  0  0
   83.7260   17.4762   28.7046 H   0  0  0  0  0
   82.9399   15.5493   27.2845 H   0  0  0  0  0
   81.3788   14.8026   29.6993 H   0  0  0  0  0
   80.9595   13.0795   27.9501 H   0  0  0  0  0
   83.0165   13.3841   30.5002 H   0  0  0  0  0
   83.0108   11.3402   29.3736 H   0  0  0  0  0
   84.1424   13.1473   27.6308 H   0  0  0  0  0
   85.3563   13.7251   31.3845 H   0  0  0  0  0
   87.2749   10.1887   26.3108 H   0  0  0  0  0
   89.7618    9.6521   29.9203 H   0  0  0  0  0
   89.0731   10.7427   31.2340 H   0  0  0  0  0
   82.0781   19.2583   23.2304 H   0  0  0  0  0
  1  2  1  0  0  0
  1 28  1  0  0  0
  1 29  1  0  0  0
  2  3  1  0  0  0
  2  6  1  0  0  0
  2 30  1  0  0  0
  3  4  2  0  0  0
  3  5  2  0  0  0
  6  7  1  0  0  0
  6 31  1  0  0  0
  6 32  1  0  0  0
  7  8  1  0  0  0
  7 33  1  0  0  0
  7 34  1  0  0  0
  8  9  1  0  0  0
  8 10  1  0  0  0
  9 35  1  0  0  0
  9 36  1  0  0  0
  9 37  1  0  0  0
 10 11  1  0  0  0
 10 38  1  0  0  0
 10 39  1  0  0  0
 11 12  1  0  0  0
 11 13  1  0  0  0
 11 40  1  0  0  0
 12 17  1  0  0  0
 13 14  1  0  0  0
 13 15  1  0  0  0
 13 41  1  0  0  0
 14 42  1  0  0  0
 15 16  1  0  0  0
 15 17  1  0  0  0
 15 43  1  0  0  0
 16 44  1  0  0  0
 17 18  1  0  0  0
 17 45  1  0  0  0
 18 19  1  0  0  0
 18 27  1  0  0  0
 19 20  2  0  0  0
 19 46  1  0  0  0
 20 21  1  0  0  0
 21 22  2  0  0  0
 21 27  1  0  0  0
 22 23  1  0  0  0
 22 24  1  0  0  0
 23 48  1  0  0  0
 23 49  1  0  0  0
 24 25  2  0  0  0
 25 26  1  0  0  0
 25 47  1  0  0  0
 26 27  2  0  0  0
  1 50  1  0  0  0
M  END
$$$$
