DMS_2_A_402
  -ISIS-            3D

 10  9  0  0  0  0  0  0  0  0  1 V2000
  -30.9490   12.9860   30.6710 S   0  0  0  0  0
  -29.6720   12.3140   30.3380 O   0  0  0  0  0
  -31.4500   13.8030   29.1940 C   0  0  0  0  0
  -32.1800   11.7210   30.6800 C   0  0  0  0  0
  -32.4737   14.2120   29.3172 H   0  0  0  0  0
  -31.4353   13.1003   28.3357 H   0  0  0  0  0
  -30.7550   14.6416   28.9838 H   0  0  0  0  0
  -33.1875   12.1754   30.7743 H   0  0  0  0  0
  -32.0097   11.0492   31.5462 H   0  0  0  0  0
  -32.1309   11.1237   29.7465 H   0  0  0  0  0
  1  2  2  0  0  0
  1  3  1  0  0  0
  1  4  1  0  0  0
  3  5  1  0  0  0
  3  6  1  0  0  0
  3  7  1  0  0  0
  4  8  1  0  0  0
  4  9  1  0  0  0
  4 10  1  0  0  0
M  END
$$$$
