DMS_1_A_404
  -ISIS-            3D

 10  9  0  0  0  0  0  0  0  0  1 V2000
  -26.0230    3.7040   38.2780 S   0  0  0  0  0
  -25.7670    3.0300   39.5960 O   0  0  0  0  0
  -25.8120    5.5170   38.3390 C   0  0  0  0  0
  -27.8030    3.6230   37.9740 C   0  0  0  0  0
  -26.0983    5.9567   37.3618 H   0  0  0  0  0
  -24.7487    5.7522   38.5496 H   0  0  0  0  0
  -26.4488    5.9416   39.1419 H   0  0  0  0  0
  -28.0409    4.1343   37.0189 H   0  0  0  0  0
  -28.3505    4.1134   38.8048 H   0  0  0  0  0
  -28.1153    2.5609   37.9055 H   0  0  0  0  0
  1  2  2  0  0  0
  1  3  1  0  0  0
  1  4  1  0  0  0
  3  5  1  0  0  0
  3  6  1  0  0  0
  3  7  1  0  0  0
  4  8  1  0  0  0
  4  9  1  0  0  0
  4 10  1  0  0  0
M  END
$$$$
