DMS_1_A_402
  -ISIS-            3D

 10  9  0  0  0  0  0  0  0  0  1 V2000
    6.4140   -5.3470   23.7820 S   0  0  0  0  0
    6.8070   -5.4020   25.2230 O   0  0  0  0  0
    7.8040   -5.1670   22.6560 C   0  0  0  0  0
    5.2630   -3.9740   23.4760 C   0  0  0  0  0
    7.4366   -5.1874   21.6098 H   0  0  0  0  0
    8.5153   -6.0034   22.8125 H   0  0  0  0  0
    8.3178   -4.2034   22.8502 H   0  0  0  0  0
    4.9299   -4.0024   22.4185 H   0  0  0  0  0
    5.7730   -3.0103   23.6800 H   0  0  0  0  0
    4.3829   -4.0769   24.1431 H   0  0  0  0  0
  1  2  2  0  0  0
  1  3  1  0  0  0
  1  4  1  0  0  0
  3  5  1  0  0  0
  3  6  1  0  0  0
  3  7  1  0  0  0
  4  8  1  0  0  0
  4  9  1  0  0  0
  4 10  1  0  0  0
M  END
$$$$
