DMS_1_A_402
  -ISIS-            3D

 10  9  0  0  0  0  0  0  0  0  1 V2000
    6.1140   -1.2250   -6.2300 S   0  0  0  0  0
    6.7450   -0.7290   -7.4920 O   0  0  0  0  0
    7.2870   -0.9480   -4.9280 C   0  0  0  0  0
    6.1820   -2.9950   -6.2800 C   0  0  0  0  0
    6.9221   -1.4110   -3.9884 H   0  0  0  0  0
    7.4059    0.1431   -4.7672 H   0  0  0  0  0
    8.2714   -1.3833   -5.1966 H   0  0  0  0  0
    5.8413   -3.4121   -5.3103 H   0  0  0  0  0
    7.2176   -3.3357   -6.4854 H   0  0  0  0  0
    5.5136   -3.3655   -7.0840 H   0  0  0  0  0
  1  2  2  0  0  0
  1  3  1  0  0  0
  1  4  1  0  0  0
  3  5  1  0  0  0
  3  6  1  0  0  0
  3  7  1  0  0  0
  4  8  1  0  0  0
  4  9  1  0  0  0
  4 10  1  0  0  0
M  END
$$$$
