FMT_1_A_7107
  -ISIS-            3D

  4  3  0  0  0  0  0  0  0  0  1 V2000
   90.9080   31.9520  -14.5050 C   0  0  0  0  0
   89.9770   32.2970  -15.2040 O   0  0  0  0  0
   92.1540   32.2940  -14.6830 O   0  0  0  0  0
   90.6776   31.2642  -13.6068 H   0  0  0  0  0
  1  2  2  0  0  0
  1  3  1  0  0  0
  1  4  1  0  0  0
M  END
$$$$
