DMS_1_A_1003
  -ISIS-            3D

 10  9  0  0  0  0  0  0  0  0  1 V2000
    6.1870   -1.1400   -6.3000 S   0  0  0  0  0
    7.0720   -0.7500   -7.3900 O   0  0  0  0  0
    7.2280   -1.1840   -4.8590 C   0  0  0  0  0
    5.9180   -2.8610   -6.5190 C   0  0  0  0  0
    6.6687   -1.6202   -4.0063 H   0  0  0  0  0
    7.5356   -0.1513   -4.5956 H   0  0  0  0  0
    8.1342   -1.7933   -5.0554 H   0  0  0  0  0
    5.3784   -3.2720   -5.6414 H   0  0  0  0  0
    6.8842   -3.3935   -6.6374 H   0  0  0  0  0
    5.3015   -3.0264   -7.4262 H   0  0  0  0  0
  1  2  2  0  0  0
  1  3  1  0  0  0
  1  4  1  0  0  0
  3  5  1  0  0  0
  3  6  1  0  0  0
  3  7  1  0  0  0
  4  8  1  0  0  0
  4  9  1  0  0  0
  4 10  1  0  0  0
M  END
$$$$
