DMS_2_A_401
  -ISIS-            3D

 10  9  0  0  0  0  0  0  0  0  1 V2000
   -6.9010  -28.0550  -21.5180 S   0  0  0  0  0
   -7.7160  -27.0940  -22.2920 O   0  0  0  0  0
   -5.6270  -28.6840  -22.5980 C   0  0  0  0  0
   -5.8960  -27.0700  -20.4590 C   0  0  0  0  0
   -4.9116  -29.2999  -22.0153 H   0  0  0  0  0
   -5.0855  -27.8461  -23.0826 H   0  0  0  0  0
   -6.0913  -29.3170  -23.3817 H   0  0  0  0  0
   -5.1668  -27.7139  -19.9258 H   0  0  0  0  0
   -6.5371  -26.5617  -19.7101 H   0  0  0  0  0
   -5.3496  -26.3036  -21.0457 H   0  0  0  0  0
  1  2  2  0  0  0
  1  3  1  0  0  0
  1  4  1  0  0  0
  3  5  1  0  0  0
  3  6  1  0  0  0
  3  7  1  0  0  0
  4  8  1  0  0  0
  4  9  1  0  0  0
  4 10  1  0  0  0
M  END
$$$$
