DMS_1_A_402
  -ISIS-            3D

 10  9  0  0  0  0  0  0  0  0  1 V2000
    6.1190   -0.9620   -6.2710 S   0  0  0  0  0
    7.1490   -0.7440   -7.3200 O   0  0  0  0  0
    6.9700   -0.9230   -4.6900 C   0  0  0  0  0
    5.7160   -2.6750   -6.3020 C   0  0  0  0  0
    6.2679   -1.2075   -3.8797 H   0  0  0  0  0
    7.3413    0.1050   -4.5005 H   0  0  0  0  0
    7.8297   -1.6236   -4.6996 H   0  0  0  0  0
    5.0446   -2.9200   -5.4535 H   0  0  0  0  0
    6.6358   -3.2907   -6.2334 H   0  0  0  0  0
    5.1932   -2.9131   -7.2509 H   0  0  0  0  0
  1  2  2  0  0  0
  1  3  1  0  0  0
  1  4  1  0  0  0
  3  5  1  0  0  0
  3  6  1  0  0  0
  3  7  1  0  0  0
  4  8  1  0  0  0
  4  9  1  0  0  0
  4 10  1  0  0  0
M  END
$$$$
