DMS_2_A_402
  -ISIS-            3D

 10  9  0  0  0  0  0  0  0  0  1 V2000
   -6.2190   -1.0390    6.3540 S   0  0  0  0  0
   -7.2390   -0.8690    7.4240 O   0  0  0  0  0
   -7.0670   -0.9470    4.7700 C   0  0  0  0  0
   -5.7580   -2.7480    6.2940 C   0  0  0  0  0
   -6.3548   -1.1735    3.9503 H   0  0  0  0  0
   -7.4657    0.0783    4.6286 H   0  0  0  0  0
   -7.9071   -1.6706    4.7434 H   0  0  0  0  0
   -5.0806   -2.9254    5.4336 H   0  0  0  0  0
   -6.6592   -3.3866    6.1929 H   0  0  0  0  0
   -5.2270   -3.0180    7.2297 H   0  0  0  0  0
  1  2  2  0  0  0
  1  3  1  0  0  0
  1  4  1  0  0  0
  3  5  1  0  0  0
  3  6  1  0  0  0
  3  7  1  0  0  0
  4  8  1  0  0  0
  4  9  1  0  0  0
  4 10  1  0  0  0
M  END
$$$$
