5HN_1_A_201
  -ISIS-            3D

 14 14  0  0  0  0  0  0  0  0  1 V2000
  -43.6260  -31.0960    3.3090 O   0  0  0  0  0
  -43.9790  -30.0580    2.7130 C   0  0  0  0  0
  -43.3680  -28.9800    2.9570 O   0  0  0  0  0
  -45.1410  -30.1280    1.6870 C   0  0  0  0  0
  -45.5450  -28.9890    1.0340 C   0  0  0  0  0
  -46.5880  -29.1060    0.1500 C   0  0  0  0  0
  -46.9680  -27.9220   -0.4970 O   0  0  0  0  0
  -47.2000  -30.3400   -0.0970 C   0  0  0  0  0
  -46.7730  -31.4310    0.5250 N   0  0  0  0  0
  -45.7920  -31.3370    1.4110 C   0  0  0  0  0
  -45.0617  -28.0144    1.2086 H   0  0  0  0  0
  -47.6804  -28.0489   -1.1076 H   0  0  0  0  0
  -48.0284  -30.4355   -0.8177 H   0  0  0  0  0
  -45.4825  -32.2632    1.9230 H   0  0  0  0  0
  1  2  2  0  0  0
  2  3  2  0  0  0
  2  4  1  0  0  0
  4  5  2  0  0  0
  4 10  1  0  0  0
  5  6  1  0  0  0
  5 11  1  0  0  0
  6  7  1  0  0  0
  6  8  2  0  0  0
  7 12  1  0  0  0
  8  9  1  0  0  0
  8 13  1  0  0  0
  9 10  2  0  0  0
 10 14  1  0  0  0
M  END
$$$$
