DAZ_1_A_701
  -ISIS-            3D

  7  6  0  0  0  0  0  0  0  0  1 V2000
   33.4730  -26.5870   -7.9680 Zn  0  2  0  0  0
   34.7100  -25.1060   -8.2010 N   0  0  0  0  0
   33.9630  -27.5020   -6.2970 N   0  0  0  0  0
   34.4329  -24.6255   -9.0511 H   0  0  0  0  0
   35.6244  -25.5128   -8.3708 H   0  0  0  0  0
   33.2458  -28.2000   -6.1269 H   0  0  0  0  0
   34.8285  -27.9997   -6.4807 H   0  0  0  0  0
  1  2  1  0  0  0
  1  3  1  0  0  0
  2  4  1  0  0  0
  2  5  1  0  0  0
  3  6  1  0  0  0
  3  7  1  0  0  0
M  END
$$$$
