DAZ_1_B_702
  -ISIS-            3D

  7  6  0  0  0  0  0  0  0  0  1 V2000
   50.3640  -53.8110  -41.3220 Zn  0  2  0  0  0
   49.4100  -53.3740  -42.9800 N   0  0  0  0  0
   50.1900  -55.7420  -41.0700 N   0  0  0  0  0
   49.5540  -52.3829  -43.1457 H   0  0  0  0  0
   49.8801  -53.8744  -43.7277 H   0  0  0  0  0
   50.5916  -55.9545  -40.1623 H   0  0  0  0  0
   50.7798  -56.1819  -41.7694 H   0  0  0  0  0
  1  2  1  0  0  0
  1  3  1  0  0  0
  2  4  1  0  0  0
  2  5  1  0  0  0
  3  6  1  0  0  0
  3  7  1  0  0  0
M  END
$$$$
