DMS_2_A_402
  -ISIS-            3D

 10  9  0  0  0  0  0  0  0  0  1 V2000
   -2.4810  -18.7130   -8.0500 S   0  0  0  0  0
   -3.7650  -18.8240   -8.9510 O   0  0  0  0  0
   -1.1660  -18.3040   -9.2010 C   0  0  0  0  0
   -2.0290  -20.3660   -7.7790 C   0  0  0  0  0
   -0.1833  -18.3868   -8.6933 H   0  0  0  0  0
   -1.3016  -17.2605   -9.5521 H   0  0  0  0  0
   -1.1909  -18.9858  -10.0757 H   0  0  0  0  0
   -1.0275  -20.4131   -7.3045 H   0  0  0  0  0
   -2.0085  -20.9304   -8.7338 H   0  0  0  0  0
   -2.7643  -20.8425   -7.0988 H   0  0  0  0  0
  1  2  2  0  0  0
  1  3  1  0  0  0
  1  4  1  0  0  0
  3  5  1  0  0  0
  3  6  1  0  0  0
  3  7  1  0  0  0
  4  8  1  0  0  0
  4  9  1  0  0  0
  4 10  1  0  0  0
M  END
$$$$
