DMS_2_A_402
  -ISIS-            3D

 10  9  0  0  0  0  0  0  0  0  1 V2000
   -6.0870   -1.0040    6.3130 S   0  0  0  0  0
   -6.9060   -0.7070    7.5170 O   0  0  0  0  0
   -7.1790   -0.9270    4.9040 C   0  0  0  0  0
   -5.8120   -2.7530    6.3150 C   0  0  0  0  0
   -6.6452   -1.2737    3.9956 H   0  0  0  0  0
   -7.5045    0.1223    4.7505 H   0  0  0  0  0
   -8.0727   -1.5619    5.0738 H   0  0  0  0  0
   -5.3147   -3.0572    5.3713 H   0  0  0  0  0
   -6.7740   -3.2960    6.4172 H   0  0  0  0  0
   -5.1546   -3.0203    7.1676 H   0  0  0  0  0
  1  2  2  0  0  0
  1  3  1  0  0  0
  1  4  1  0  0  0
  3  5  1  0  0  0
  3  6  1  0  0  0
  3  7  1  0  0  0
  4  8  1  0  0  0
  4  9  1  0  0  0
  4 10  1  0  0  0
M  END
$$$$
