DMS_2_A_403
  -ISIS-            3D

 10  9  0  0  0  0  0  0  0  0  1 V2000
   -2.3670  -18.9330   -8.1550 S   0  0  0  0  0
   -3.5830  -18.7580   -9.0370 O   0  0  0  0  0
   -1.0460  -18.0780   -8.9830 C   0  0  0  0  0
   -1.8010  -20.5870   -8.4650 C   0  0  0  0  0
   -0.0822  -18.2964   -8.4792 H   0  0  0  0  0
   -1.2331  -16.9856   -8.9387 H   0  0  0  0  0
   -0.9875  -18.3912  -10.0453 H   0  0  0  0  0
   -0.8186  -20.7467   -7.9756 H   0  0  0  0  0
   -1.7042  -20.7660   -9.5553 H   0  0  0  0  0
   -2.5305  -21.3080   -8.0448 H   0  0  0  0  0
  1  2  2  0  0  0
  1  3  1  0  0  0
  1  4  1  0  0  0
  3  5  1  0  0  0
  3  6  1  0  0  0
  3  7  1  0  0  0
  4  8  1  0  0  0
  4  9  1  0  0  0
  4 10  1  0  0  0
M  END
$$$$
