DMS_2_A_402
  -ISIS-            3D

 10  9  0  0  0  0  0  0  0  0  1 V2000
   -6.2970   -1.2240    6.3850 S   0  0  0  0  0
   -7.0830   -1.5860    7.5710 O   0  0  0  0  0
   -7.4750   -0.8760    5.0960 C   0  0  0  0  0
   -5.6880   -2.7480    5.7270 C   0  0  0  0  0
   -6.9470   -0.7412    4.1299 H   0  0  0  0  0
   -8.0184    0.0598    5.3400 H   0  0  0  0  0
   -8.2067   -1.7049    5.0053 H   0  0  0  0  0
   -5.2056   -2.5687    4.7444 H   0  0  0  0  0
   -6.5152   -3.4770    5.6043 H   0  0  0  0  0
   -4.9344   -3.1725    6.4216 H   0  0  0  0  0
  1  2  2  0  0  0
  1  3  1  0  0  0
  1  4  1  0  0  0
  3  5  1  0  0  0
  3  6  1  0  0  0
  3  7  1  0  0  0
  4  8  1  0  0  0
  4  9  1  0  0  0
  4 10  1  0  0  0
M  END
$$$$
