DMS_1_A_409
  -ISIS-            3D

 10  9  0  0  0  0  0  0  0  0  1 V2000
   11.8860    2.8520   33.1950 S   0  0  0  0  0
   12.9270    3.3300   32.2770 O   0  0  0  0  0
   10.5110    3.9270   32.9060 C   0  0  0  0  0
   12.3480    3.4720   34.7880 C   0  0  0  0  0
    9.7265    3.7483   33.6694 H   0  0  0  0  0
   10.0860    3.7188   31.9027 H   0  0  0  0  0
   10.8311    4.9886   32.9486 H   0  0  0  0  0
   11.5259    3.2990   35.5121 H   0  0  0  0  0
   12.5688    4.5580   34.7336 H   0  0  0  0  0
   13.2534    2.9376   35.1417 H   0  0  0  0  0
  1  2  2  0  0  0
  1  3  1  0  0  0
  1  4  1  0  0  0
  3  5  1  0  0  0
  3  6  1  0  0  0
  3  7  1  0  0  0
  4  8  1  0  0  0
  4  9  1  0  0  0
  4 10  1  0  0  0
M  END
$$$$
