DMS_2_A_403
  -ISIS-            3D

 10  9  0  0  0  0  0  0  0  0  1 V2000
   -2.3980  -18.9750   -8.0940 S   0  0  0  0  0
   -3.5610  -18.7400   -9.0380 O   0  0  0  0  0
   -0.9760  -18.2420   -8.8610 C   0  0  0  0  0
   -1.9370  -20.6730   -8.3420 C   0  0  0  0  0
   -0.0604  -18.5175   -8.2988 H   0  0  0  0  0
   -1.0829  -17.1380   -8.8511 H   0  0  0  0  0
   -0.8823  -18.5854   -9.9117 H   0  0  0  0  0
   -0.9956  -20.8911   -7.7975 H   0  0  0  0  0
   -1.7963  -20.8826   -9.4223 H   0  0  0  0  0
   -2.7382  -21.3314   -7.9483 H   0  0  0  0  0
  1  2  2  0  0  0
  1  3  1  0  0  0
  1  4  1  0  0  0
  3  5  1  0  0  0
  3  6  1  0  0  0
  3  7  1  0  0  0
  4  8  1  0  0  0
  4  9  1  0  0  0
  4 10  1  0  0  0
M  END
$$$$
