UVC_2_A_401
  -ISIS-            3D

 34 36  0  0  0  0  0  0  0  0  1 V2000
  -46.8240   40.2220  -25.9770 N   0  0  0  0  0
  -47.4740   41.3930  -26.0640 C   0  0  0  0  0
  -47.3920   42.3050  -25.0830 N   0  0  0  0  0
  -46.6550   42.0740  -23.9890 C   0  0  0  0  0
  -45.9680   40.8730  -23.8710 C   0  0  0  0  0
  -46.0730   39.9470  -24.9020 C   0  0  0  0  0
  -48.1730   41.6400  -27.0710 O   0  0  0  0  0
  -46.5870   42.9340  -23.0830 O   0  0  0  0  0
  -46.9160   39.2260  -27.0700 C   0  0  0  0  0
  -45.9920   39.5810  -28.2410 C   0  0  0  0  0
  -46.6030   39.1920  -29.4610 O   0  0  0  0  0
  -44.7860   38.6860  -27.9810 C   0  0  0  0  0
  -45.4230   37.4500  -27.3670 C   0  0  0  0  0
  -44.0840   38.3970  -29.1780 O   0  0  0  0  0
  -46.5030   37.9780  -26.5600 O   0  0  0  0  0
  -44.5250   36.5950  -26.5100 C   0  0  0  0  0
  -44.1540   37.2680  -25.3160 O   0  0  0  0  0
  -45.2920   38.4290  -30.7730 V   0  0  0  0  0
  -43.8940   37.6600  -32.1450 O   0  0  0  0  0
  -45.4300   40.1570  -31.9700 O   0  0  0  0  0
  -46.5030   36.7370  -31.0850 O   0  0  0  0  0
  -45.3629   40.6869  -22.9700 H   0  0  0  0  0
  -45.5422   38.9935  -24.8289 H   0  0  0  0  0
  -47.9645   39.1399  -27.4284 H   0  0  0  0  0
  -45.7130   40.6522  -28.2787 H   0  0  0  0  0
  -44.1027   39.1675  -27.2514 H   0  0  0  0  0
  -45.8577   36.8235  -28.1759 H   0  0  0  0  0
  -43.6137   36.3100  -27.0767 H   0  0  0  0  0
  -45.0507   35.6530  -26.2437 H   0  0  0  0  0
  -43.6215   36.6804  -24.7966 H   0  0  0  0  0
  -43.1635   37.4122  -31.5939 H   0  0  0  0  0
  -46.2898   40.5002  -31.7640 H   0  0  0  0  0
  -47.2184   37.0741  -31.6072 H   0  0  0  0  0
  -47.9030   43.1927  -25.1740 H   0  0  0  0  0
  1  2  1  0  0  0
  1  6  1  0  0  0
  1  9  1  0  0  0
  2  3  1  0  0  0
  2  7  2  0  0  0
  3  4  1  0  0  0
  4  5  1  0  0  0
  4  8  2  0  0  0
  5  6  2  0  0  0
  5 22  1  0  0  0
  6 23  1  0  0  0
  9 10  1  0  0  0
  9 15  1  0  0  0
  9 24  1  0  0  0
 10 11  1  0  0  0
 10 12  1  0  0  0
 10 25  1  0  0  0
 11 18  1  0  0  0
 12 13  1  0  0  0
 12 14  1  0  0  0
 12 26  1  0  0  0
 13 15  1  0  0  0
 13 16  1  0  0  0
 13 27  1  0  0  0
 14 18  1  0  0  0
 16 17  1  0  0  0
 16 28  1  0  0  0
 16 29  1  0  0  0
 17 30  1  0  0  0
 18 19  1  0  0  0
 18 20  1  0  0  0
 18 21  1  0  0  0
 19 31  1  0  0  0
 20 32  1  0  0  0
 21 33  1  0  0  0
  3 34  1  0  0  0
M  END
$$$$
