5OF_1_A_201
  -ISIS-            3D

 21 22  0  0  0  0  0  0  0  0  1 V2000
  -44.8480  -28.7850    0.5350 C   0  0  0  0  0
  -46.6950  -30.8760    0.3060 C   0  0  0  0  0
  -44.4240  -30.0710    0.6330 C   0  0  0  0  0
  -43.2700  -33.5660    2.3770 O   0  0  0  0  0
  -42.9490  -32.3830    2.3490 C   0  0  0  0  0
  -42.9240  -31.6500    3.3600 O   0  0  0  0  0
  -42.5810  -31.8770    0.9740 C   0  0  0  0  0
  -42.9610  -30.4290    0.8780 C   0  0  0  0  0
  -41.9790  -29.4250    0.9960 N   0  0  0  0  0
  -42.4180  -28.1000    0.9230 N   0  0  0  0  0
  -43.7930  -27.6900    0.7020 C   0  0  0  0  0
  -44.0350  -26.5720    0.6110 O   0  0  0  0  0
  -46.2030  -28.5150    0.3390 C   0  0  0  0  0
  -47.1190  -29.5560    0.2060 C   0  0  0  0  0
  -45.3420  -31.1240    0.5190 C   0  0  0  0  0
  -47.4157  -31.7060    0.2162 H   0  0  0  0  0
  -43.0289  -32.4740    0.1507 H   0  0  0  0  0
  -41.4790  -31.9693    0.8398 H   0  0  0  0  0
  -46.5530  -27.4709    0.2805 H   0  0  0  0  0
  -48.1850  -29.3317    0.0320 H   0  0  0  0  0
  -45.0414  -32.1797    0.5957 H   0  0  0  0  0
  1  3  2  0  0  0
  1 11  1  0  0  0
  1 13  1  0  0  0
  2 14  1  0  0  0
  2 15  2  0  0  0
  2 16  1  0  0  0
  3  8  1  0  0  0
  3 15  1  0  0  0
  4  5  2  0  0  0
  5  6  2  0  0  0
  5  7  1  0  0  0
  7  8  1  0  0  0
  7 17  1  0  0  0
  7 18  1  0  0  0
  8  9  1  0  0  0
  9 10  1  0  0  0
 10 11  1  0  0  0
 11 12  2  0  0  0
 13 14  2  0  0  0
 13 19  1  0  0  0
 14 20  1  0  0  0
 15 21  1  0  0  0
M  END
$$$$
