DMS_2_A_406
  -ISIS-            3D

 10  9  0  0  0  0  0  0  0  0  1 V2000
  -20.4680  -16.0650   -5.0740 S   0  0  0  0  0
  -20.3640  -15.7600   -3.6130 O   0  0  0  0  0
  -20.6980  -17.8490   -5.3030 C   0  0  0  0  0
  -22.0420  -15.4350   -5.7120 C   0  0  0  0  0
  -20.8377  -18.0695   -6.3810 H   0  0  0  0  0
  -21.5879  -18.1893   -4.7349 H   0  0  0  0  0
  -19.7992  -18.3840   -4.9338 H   0  0  0  0  0
  -22.1482  -15.7154   -6.7799 H   0  0  0  0  0
  -22.0575  -14.3297   -5.6210 H   0  0  0  0  0
  -22.8827  -15.8638   -5.1291 H   0  0  0  0  0
  1  2  2  0  0  0
  1  3  1  0  0  0
  1  4  1  0  0  0
  3  5  1  0  0  0
  3  6  1  0  0  0
  3  7  1  0  0  0
  4  8  1  0  0  0
  4  9  1  0  0  0
  4 10  1  0  0  0
M  END
$$$$
