DMS_1_A_403
  -ISIS-            3D

 10  9  0  0  0  0  0  0  0  0  1 V2000
    7.0130  -28.1200   21.5410 S   0  0  0  0  0
    7.8020  -27.1190   22.2930 O   0  0  0  0  0
    5.6670  -28.6590   22.6710 C   0  0  0  0  0
    6.0320  -27.3260   20.2740 C   0  0  0  0  0
    4.9940  -29.3598   22.1359 H   0  0  0  0  0
    5.0901  -27.7765   23.0160 H   0  0  0  0  0
    6.1114  -29.1748   23.5467 H   0  0  0  0  0
    5.3613  -28.0711   19.7994 H   0  0  0  0  0
    6.7048  -26.8998   19.5020 H   0  0  0  0  0
    5.4250  -26.5110   20.7188 H   0  0  0  0  0
  1  2  2  0  0  0
  1  3  1  0  0  0
  1  4  1  0  0  0
  3  5  1  0  0  0
  3  6  1  0  0  0
  3  7  1  0  0  0
  4  8  1  0  0  0
  4  9  1  0  0  0
  4 10  1  0  0  0
M  END
$$$$
