4JO_1_A_201
  -ISIS-            3D

 16 16  0  0  0  0  0  0  0  0  1 V2000
  -49.2540  -29.0540    8.0180 Br  0  0  0  0  0
  -49.4260  -28.9750    6.1060 C   0  0  0  0  0
  -50.6340  -29.1790    5.4470 C   0  0  0  0  0
  -51.8770  -29.5200    6.2620 C   0  0  0  0  0
  -48.3080  -28.6650    5.3510 C   0  0  0  0  0
  -48.4330  -28.6150    3.9860 C   0  0  0  0  0
  -49.6660  -28.8190    3.4070 C   0  0  0  0  0
  -50.7150  -29.1000    4.1400 N   0  0  0  0  0
  -49.7830  -28.7130    1.9750 N   0  0  0  0  0
  -52.7620  -29.6565    5.6016 H   0  0  0  0  0
  -52.1310  -28.7102    6.9813 H   0  0  0  0  0
  -51.7467  -30.4673    6.8307 H   0  0  0  0  0
  -47.3322  -28.4734    5.8272 H   0  0  0  0  0
  -47.5515  -28.3931    3.3629 H   0  0  0  0  0
  -50.7322  -28.8731    1.6157 H   0  0  0  0  0
  -48.9363  -28.4923    1.4356 H   0  0  0  0  0
  1  2  1  0  0  0
  2  3  2  0  0  0
  2  5  1  0  0  0
  3  4  1  0  0  0
  3  8  1  0  0  0
  4 10  1  0  0  0
  4 11  1  0  0  0
  4 12  1  0  0  0
  5  6  2  0  0  0
  5 13  1  0  0  0
  6  7  1  0  0  0
  6 14  1  0  0  0
  7  8  2  0  0  0
  7  9  1  0  0  0
  9 15  1  0  0  0
  9 16  1  0  0  0
M  END
$$$$
