DMS_1_A_202
  -ISIS-            3D

 10  9  0  0  0  0  0  0  0  0  1 V2000
   -1.3020    9.2710   -7.2540 S   0  0  0  0  0
   -0.0830    8.4820   -6.9710 O   0  0  0  0  0
   -1.0690    9.7230   -8.9250 C   0  0  0  0  0
   -0.8560   10.8110   -6.5640 C   0  0  0  0  0
   -1.7959   10.5104   -9.2091 H   0  0  0  0  0
   -1.2394    8.8386   -9.5717 H   0  0  0  0  0
   -0.0387   10.0968   -9.0980 H   0  0  0  0  0
   -1.5802   11.5906   -6.8780 H   0  0  0  0  0
    0.1634   11.1117   -6.8807 H   0  0  0  0  0
   -0.8778   10.7386   -5.4574 H   0  0  0  0  0
  1  2  2  0  0  0
  1  3  1  0  0  0
  1  4  1  0  0  0
  3  5  1  0  0  0
  3  6  1  0  0  0
  3  7  1  0  0  0
  4  8  1  0  0  0
  4  9  1  0  0  0
  4 10  1  0  0  0
M  END
$$$$
