EDO_1_A_404
  -ISIS-            3D

 10  9  0  0  0  0  0  0  0  0  1 V2000
  -10.7390    0.4850   -5.1470 C   0  0  0  0  0
   -9.3550    0.8670   -5.0740 O   0  0  0  0  0
  -11.0420   -0.0760   -6.5290 C   0  0  0  0  0
  -10.2400   -1.2460   -6.7340 O   0  0  0  0  0
  -11.3675    1.3765   -4.9437 H   0  0  0  0  0
  -10.9611   -0.2617   -4.3561 H   0  0  0  0  0
   -8.8600    0.1539   -5.4612 H   0  0  0  0  0
  -10.8033    0.6702   -7.3149 H   0  0  0  0  0
  -12.1197   -0.3252   -6.6282 H   0  0  0  0  0
  -10.7570   -2.0096   -6.5139 H   0  0  0  0  0
  1  2  1  0  0  0
  1  3  1  0  0  0
  1  5  1  0  0  0
  1  6  1  0  0  0
  2  7  1  0  0  0
  3  4  1  0  0  0
  3  8  1  0  0  0
  3  9  1  0  0  0
  4 10  1  0  0  0
M  END
$$$$
