GTA_1_A_301
  -ISIS-            3D

 79 84  0  0  0  0  0  0  0  0  1 V2000
   87.1180  -31.5120   44.8780 N   0  0  0  0  0
   84.7220  -32.4970   41.1150 O   0  0  0  0  0
   85.0950  -31.6220   41.8870 C   0  0  0  0  0
   84.8180  -30.2590   41.8420 C   0  0  0  0  0
   84.0710  -29.4860   40.9510 N   0  0  0  0  0
   83.3610  -29.9680   39.7690 C   0  0  0  0  0
   84.1200  -28.2180   41.3570 C   0  0  0  0  0
   84.8490  -28.1180   42.4460 N   0  0  0  0  0
   85.3120  -29.3980   42.7860 C   0  0  0  0  0
   86.0850  -29.7290   43.8370 N   0  0  0  0  0
   86.3560  -31.0250   43.8930 C   0  0  0  0  0
   85.8900  -31.9240   42.9700 N   0  0  0  0  0
   87.1870  -24.4050   41.4500 O   0  0  0  0  0
   85.1320  -26.8660   43.1790 C   0  0  0  0  0
   86.5070  -26.3220   42.8210 C   0  0  0  0  0
   86.1760  -25.3760   41.6870 C   0  0  0  0  0
   84.8560  -24.7590   42.1760 C   0  0  0  0  0
   83.9370  -24.1920   41.1170 C   0  0  0  0  0
   84.1890  -25.8570   42.8550 O   0  0  0  0  0
   87.0280  -25.6380   43.9420 O   0  0  0  0  0
   83.3750  -24.8130   38.5850 P   0  0  0  0  0
   81.9420  -24.4520   38.3710 O   0  0  0  0  0
   84.4050  -23.8180   38.1640 O   0  0  0  0  0
   83.6790  -26.1920   37.8250 O   0  0  0  0  0
   83.6040  -25.2170   40.1280 O   0  0  0  0  0
   85.0360  -26.9890   37.5310 P   0  0  0  0  0
   84.7020  -28.3310   36.9630 O   0  0  0  0  0
   85.8860  -26.8930   38.7530 O   0  0  0  0  0
   85.7120  -26.1330   36.3590 O   0  0  0  0  0
   87.2210  -26.1230   35.8030 P   0  0  0  0  0
   87.5490  -27.4710   35.2520 O   0  0  0  0  0
   88.1200  -25.5530   36.8490 O   0  0  0  0  0
   87.1150  -25.0750   34.6050 O   0  0  0  0  0
   86.0590  -25.2180   33.6360 C   0  0  0  0  0
   86.3800  -24.3510   32.4460 C   0  0  0  0  0
   85.9960  -22.9810   32.7350 O   0  0  0  0  0
   87.8610  -24.2680   32.0520 C   0  0  0  0  0
   88.2630  -25.3370   31.2030 O   0  0  0  0  0
   87.8930  -22.9250   31.3250 C   0  0  0  0  0
   87.4240  -23.0360   29.9980 O   0  0  0  0  0
   86.9670  -22.0970   32.2170 C   0  0  0  0  0
   87.6660  -21.4590   33.3380 N   0  0  0  0  0
   88.0280  -22.0230   34.5400 C   0  0  0  0  0
   88.6520  -21.1770   35.3280 N   0  0  0  0  0
   88.7040  -19.9930   34.6010 C   0  0  0  0  0
   89.2400  -18.7220   34.8870 C   0  0  0  0  0
   89.8500  -18.4180   36.0290 N   0  0  0  0  0
   89.1200  -17.7650   33.9330 N   0  0  0  0  0
   88.5060  -18.0790   32.7840 C   0  0  0  0  0
   87.9660  -19.2360   32.4070 N   0  0  0  0  0
   88.1020  -20.1610   33.3730 C   0  0  0  0  0
   82.8484  -29.1219   39.2612 H   0  0  0  0  0
   82.6027  -30.7208   40.0771 H   0  0  0  0  0
   84.0879  -30.4324   39.0670 H   0  0  0  0  0
   83.6373  -27.3496   40.9011 H   0  0  0  0  0
   87.6480  -24.6401   40.6554 H   0  0  0  0  0
   85.0700  -27.0915   44.2652 H   0  0  0  0  0
   87.2102  -27.1190   42.5037 H   0  0  0  0  0
   85.9881  -25.9637   40.7700 H   0  0  0  0  0
   85.0793  -23.9669   42.9234 H   0  0  0  0  0
   84.4305  -23.3233   40.6346 H   0  0  0  0  0
   82.9986  -23.8185   41.5772 H   0  0  0  0  0
   87.6356  -24.9879   43.6087 H   0  0  0  0  0
   85.0802  -24.9384   34.0781 H   0  0  0  0  0
   85.9914  -26.2769   33.3071 H   0  0  0  0  0
   85.7813  -24.6990   31.5763 H   0  0  0  0  0
   88.5272  -24.2315   32.9360 H   0  0  0  0  0
   88.2214  -25.0189   30.3082 H   0  0  0  0  0
   88.9194  -22.5037   31.3114 H   0  0  0  0  0
   86.4790  -22.9577   29.9862 H   0  0  0  0  0
   86.4696  -21.2910   31.6380 H   0  0  0  0  0
   87.8704  -23.0325   34.9237 H   0  0  0  0  0
   88.4381  -17.2613   32.0459 H   0  0  0  0  0
   87.3269  -32.5169   44.9163 H   0  0  0  0  0
   87.4478  -30.8073   45.5483 H   0  0  0  0  0
   90.1933  -17.4523   36.1021 H   0  0  0  0  0
   89.9279  -19.1608   36.7353 H   0  0  0  0  0
   86.1787  -32.8948   43.1348 H   0  0  0  0  0
   81.7545  -24.2270   37.2782 H   0  0  0  0  0
  1 11  1  0  0  0
  1 74  1  0  0  0
  1 75  1  0  0  0
  2  3  2  0  0  0
  3  4  1  0  0  0
  3 12  1  0  0  0
  4  5  1  0  0  0
  4  9  2  0  0  0
  5  6  1  0  0  0
  5  7  1  0  0  0
  6 52  1  0  0  0
  6 53  1  0  0  0
  6 54  1  0  0  0
  7  8  1  0  0  0
  7 55  1  0  0  0
  8  9  1  0  0  0
  8 14  1  0  0  0
  9 10  1  0  0  0
 10 11  2  0  0  0
 11 12  1  0  0  0
 12 78  1  0  0  0
 13 16  1  0  0  0
 13 56  1  0  0  0
 14 15  1  0  0  0
 14 19  1  0  0  0
 14 57  1  0  0  0
 15 16  1  0  0  0
 15 20  1  0  0  0
 15 58  1  0  0  0
 16 17  1  0  0  0
 16 59  1  0  0  0
 17 18  1  0  0  0
 17 19  1  0  0  0
 17 60  1  0  0  0
 18 25  1  0  0  0
 18 61  1  0  0  0
 18 62  1  0  0  0
 20 63  1  0  0  0
 21 22  1  0  0  0
 21 23  2  0  0  0
 21 24  1  0  0  0
 21 25  1  0  0  0
 24 26  1  0  0  0
 26 27  2  0  0  0
 26 28  2  0  0  0
 26 29  1  0  0  0
 29 30  1  0  0  0
 30 31  2  0  0  0
 30 32  2  0  0  0
 30 33  1  0  0  0
 33 34  1  0  0  0
 34 35  1  0  0  0
 34 64  1  0  0  0
 34 65  1  0  0  0
 35 36  1  0  0  0
 35 37  1  0  0  0
 35 66  1  0  0  0
 36 41  1  0  0  0
 37 38  1  0  0  0
 37 39  1  0  0  0
 37 67  1  0  0  0
 38 68  1  0  0  0
 39 40  1  0  0  0
 39 41  1  0  0  0
 39 69  1  0  0  0
 40 70  1  0  0  0
 41 42  1  0  0  0
 41 71  1  0  0  0
 42 43  1  0  0  0
 42 51  1  0  0  0
 43 44  2  0  0  0
 43 72  1  0  0  0
 44 45  1  0  0  0
 45 46  2  0  0  0
 45 51  1  0  0  0
 46 47  1  0  0  0
 46 48  1  0  0  0
 47 76  1  0  0  0
 47 77  1  0  0  0
 48 49  2  0  0  0
 49 50  1  0  0  0
 49 73  1  0  0  0
 50 51  2  0  0  0
 22 79  1  0  0  0
M  END
$$$$
