SAM_1_A_302
  -ISIS-            3D

 50 52  0  0  0  0  0  0  0  0  1 V2000
   87.6180  -19.9000   24.0150 N   0  3  0  0  0
   88.8840  -19.2680   24.4940 C   0  0  0  0  0
   90.0750  -20.0710   23.9500 C   0  0  0  0  0
   89.9450  -20.7130   22.9010 O   0  0  0  0  0
   91.1750  -20.0980   24.5180 O   0  0  0  0  0
   88.9240  -19.2120   26.0270 C   0  0  0  0  0
   87.7070  -18.5340   26.6500 C   0  0  0  0  0
   87.9090  -18.3520   28.4360 S   0  0  0  0  0
   87.5810  -20.0140   28.9940 C   0  0  0  0  0
   86.3430  -17.5470   28.8420 C   0  0  0  0  0
   86.2360  -16.1370   28.3050 C   0  0  0  0  0
   84.9630  -15.5760   28.6840 O   0  0  0  0  0
   87.2820  -15.1450   28.8260 C   0  0  0  0  0
   88.1590  -14.7650   27.7730 O   0  0  0  0  0
   86.4620  -13.9430   29.3180 C   0  0  0  0  0
   87.0040  -12.7070   28.9110 O   0  0  0  0  0
   85.1210  -14.1830   28.6390 C   0  0  0  0  0
   83.9850  -13.5350   29.2810 N   0  0  0  0  0
   83.5610  -13.6850   30.5750 C   0  0  0  0  0
   82.5090  -12.9620   30.8640 N   0  0  0  0  0
   82.2160  -12.2920   29.6860 C   0  0  0  0  0
   81.2050  -11.3710   29.3430 C   0  0  0  0  0
   80.2680  -10.9510   30.1880 N   0  0  0  0  0
   81.1950  -10.8950   28.0750 N   0  0  0  0  0
   82.1420  -11.3230   27.2280 C   0  0  0  0  0
   83.1370  -12.1820   27.4380 N   0  0  0  0  0
   83.1210  -12.6390   28.7010 C   0  0  0  0  0
   87.5083  -20.8334   24.4018 H   0  0  0  0  0
   87.6075  -19.9685   23.0015 H   0  0  0  0  0
   88.9497  -18.2322   24.0838 H   0  0  0  0  0
   89.8452  -18.6680   26.3412 H   0  0  0  0  0
   89.0152  -20.2484   26.4259 H   0  0  0  0  0
   86.7728  -19.1022   26.4494 H   0  0  0  0  0
   87.5889  -17.5256   26.1968 H   0  0  0  0  0
   87.4835  -20.0338   30.1011 H   0  0  0  0  0
   88.4163  -20.6943   28.7224 H   0  0  0  0  0
   86.6462  -20.4333   28.5640 H   0  0  0  0  0
   86.2445  -17.5385   29.9500 H   0  0  0  0  0
   85.5018  -18.1624   28.4536 H   0  0  0  0  0
   86.2719  -16.1598   27.1943 H   0  0  0  0  0
   87.8588  -15.5646   29.6774 H   0  0  0  0  0
   88.8692  -15.3913   27.7377 H   0  0  0  0  0
   86.3584  -13.9752   30.4220 H   0  0  0  0  0
   87.5819  -12.8663   28.1740 H   0  0  0  0  0
   85.1561  -13.8475   27.5801 H   0  0  0  0  0
   83.9912  -14.3205   31.3603 H   0  0  0  0  0
   82.0880  -10.9024   26.2091 H   0  0  0  0  0
   79.5933  -10.2799   29.8005 H   0  0  0  0  0
   80.2946  -11.3256   31.1449 H   0  0  0  0  0
   86.8109  -19.3442   24.2791 H   0  0  0  0  0
  1  2  1  0  0  0
  1 28  1  0  0  0
  1 29  1  0  0  0
  2  3  1  0  0  0
  2  6  1  0  0  0
  2 30  1  0  0  0
  3  4  2  0  0  0
  3  5  2  0  0  0
  6  7  1  0  0  0
  6 31  1  0  0  0
  6 32  1  0  0  0
  7  8  1  0  0  0
  7 33  1  0  0  0
  7 34  1  0  0  0
  8  9  1  0  0  0
  8 10  1  0  0  0
  9 35  1  0  0  0
  9 36  1  0  0  0
  9 37  1  0  0  0
 10 11  1  0  0  0
 10 38  1  0  0  0
 10 39  1  0  0  0
 11 12  1  0  0  0
 11 13  1  0  0  0
 11 40  1  0  0  0
 12 17  1  0  0  0
 13 14  1  0  0  0
 13 15  1  0  0  0
 13 41  1  0  0  0
 14 42  1  0  0  0
 15 16  1  0  0  0
 15 17  1  0  0  0
 15 43  1  0  0  0
 16 44  1  0  0  0
 17 18  1  0  0  0
 17 45  1  0  0  0
 18 19  1  0  0  0
 18 27  1  0  0  0
 19 20  2  0  0  0
 19 46  1  0  0  0
 20 21  1  0  0  0
 21 22  2  0  0  0
 21 27  1  0  0  0
 22 23  1  0  0  0
 22 24  1  0  0  0
 23 48  1  0  0  0
 23 49  1  0  0  0
 24 25  2  0  0  0
 25 26  1  0  0  0
 25 47  1  0  0  0
 26 27  2  0  0  0
  1 50  1  0  0  0
M  END
$$$$
