TTT_1_A_317
  -ISIS-            3D

 43 45  0  0  0  0  0  0  0  0  1 V2000
  -29.9910   21.1070   29.9270 C   0  0  0  0  0
  -28.5330   21.4130   29.8040 C   0  0  0  0  0
  -33.7440   21.9080   31.0440 C   0  0  0  0  0
  -33.7210   24.5430   29.8610 C   0  0  0  0  0
  -27.5970   20.2630   29.4840 C   0  0  0  0  0
  -34.4760   23.1010   31.6940 C   0  0  0  0  0
  -34.4300   24.3800   31.0660 C   0  0  0  0  0
  -28.0170   22.7250   29.9800 C   0  0  0  0  0
  -33.7870   20.6250   31.6670 C   0  0  0  0  0
  -28.1340   18.8500   29.2880 C   0  0  0  0  0
  -26.6190   22.9310   29.8520 C   0  0  0  0  0
  -34.5130   20.4590   32.8940 C   0  0  0  0  0
  -25.7210   21.8600   29.5540 C   0  0  0  0  0
  -35.2050   21.5710   33.5120 C   0  0  0  0  0
  -30.3230   20.5890   30.9850 O   0  0  0  0  0
  -26.2130   20.5340   29.3710 C   0  0  0  0  0
  -26.1210   24.1640   30.0160 N   0  0  0  0  0
  -30.8560   21.3610   28.9450 N   0  0  0  0  0
  -32.2750   21.0260   29.0640 C   0  0  0  0  0
  -32.9030   20.7250   27.6910 C   0  0  0  0  0
  -33.0030   22.1580   29.7480 C   0  0  0  0  0
  -35.1990   22.8790   32.9390 C   0  0  0  0  0
  -33.0300   23.4780   29.2200 C   0  0  0  0  0
  -33.6993   25.5427   29.3930 H   0  0  0  0  0
  -34.9482   25.2404   31.5212 H   0  0  0  0  0
  -28.6990   23.5579   30.2147 H   0  0  0  0  0
  -33.2816   19.7421   31.2517 H   0  0  0  0  0
  -27.3513   18.1596   28.9043 H   0  0  0  0  0
  -28.9720   18.8367   28.5567 H   0  0  0  0  0
  -28.5081   18.4300   30.2476 H   0  0  0  0  0
  -34.5443   19.4672   33.3765 H   0  0  0  0  0
  -24.6386   22.0496   29.4628 H   0  0  0  0  0
  -35.7520   21.4009   34.4551 H   0  0  0  0  0
  -25.5050   19.7204   29.1415 H   0  0  0  0  0
  -30.5014   21.8040   28.0872 H   0  0  0  0  0
  -32.3740   20.0866   29.6464 H   0  0  0  0  0
  -33.9801   20.4601   27.7863 H   0  0  0  0  0
  -32.3959   19.8676   27.1937 H   0  0  0  0  0
  -32.8348   21.5933   26.9987 H   0  0  0  0  0
  -35.7341   23.7066   33.4331 H   0  0  0  0  0
  -32.4964   23.6941   28.2788 H   0  0  0  0  0
  -25.1049   24.2763   29.9067 H   0  0  0  0  0
  -26.7911   24.9103   30.2419 H   0  0  0  0  0
  1  2  1  0  0  0
  1 15  2  0  0  0
  1 18  1  0  0  0
  2  5  1  0  0  0
  2  8  1  0  0  0
  3  6  1  0  0  0
  3  9  1  0  0  0
  3 21  1  0  0  0
  4  7  2  0  0  0
  4 23  1  0  0  0
  4 24  1  0  0  0
  5 10  1  0  0  0
  5 16  1  0  0  0
  6  7  1  0  0  0
  6 22  1  0  0  0
  7 25  1  0  0  0
  8 11  2  0  0  0
  8 26  1  0  0  0
  9 12  2  0  0  0
  9 27  1  0  0  0
 10 28  1  0  0  0
 10 29  1  0  0  0
 10 30  1  0  0  0
 11 13  1  0  0  0
 11 17  1  0  0  0
 12 14  1  0  0  0
 12 31  1  0  0  0
 13 16  2  0  0  0
 13 32  1  0  0  0
 14 22  1  0  0  0
 14 33  1  0  0  0
 16 34  1  0  0  0
 17 42  1  0  0  0
 17 43  1  0  0  0
 18 19  1  0  0  0
 18 35  1  0  0  0
 19 20  1  0  0  0
 19 21  1  0  0  0
 19 36  1  0  0  0
 20 37  1  0  0  0
 20 38  1  0  0  0
 20 39  1  0  0  0
 21 23  2  0  0  0
 22 40  1  0  0  0
 23 41  1  0  0  0
M  END
$$$$
