DMS_1_A_401
  -ISIS-            3D

 10  9  0  0  0  0  0  0  0  0  1 V2000
    6.9800  -27.9030   21.6280 S   0  0  0  0  0
    7.7160  -26.8930   22.4420 O   0  0  0  0  0
    5.6510  -28.5280   22.6460 C   0  0  0  0  0
    5.9920  -26.9890   20.4980 C   0  0  0  0  0
    4.9873  -29.1785   22.0404 H   0  0  0  0  0
    5.0621  -27.6890   23.0702 H   0  0  0  0  0
    6.0780  -29.1260   23.4769 H   0  0  0  0  0
    5.3152  -27.6739   19.9475 H   0  0  0  0  0
    6.6493  -26.4754   19.7668 H   0  0  0  0  0
    5.3890  -26.2281   21.0348 H   0  0  0  0  0
  1  2  2  0  0  0
  1  3  1  0  0  0
  1  4  1  0  0  0
  3  5  1  0  0  0
  3  6  1  0  0  0
  3  7  1  0  0  0
  4  8  1  0  0  0
  4  9  1  0  0  0
  4 10  1  0  0  0
M  END
$$$$
