EDO_1_A_601
  -ISIS-            3D

 10  9  0  0  0  0  0  0  0  0  1 V2000
   15.2270   -9.3320   -4.1720 C   0  0  0  0  0
   15.4540   -7.9710   -4.5930 O   0  0  0  0  0
   14.5670  -10.1670   -5.2690 C   0  0  0  0  0
   15.2360  -10.0100   -6.5380 O   0  0  0  0  0
   14.6001   -9.3273   -3.2566 H   0  0  0  0  0
   16.2025   -9.7825   -3.8913 H   0  0  0  0  0
   15.7618   -8.0232   -5.4909 H   0  0  0  0  0
   13.5063   -9.8568   -5.3826 H   0  0  0  0  0
   14.5642  -11.2394   -4.9805 H   0  0  0  0  0
   14.7876  -10.5483   -7.1763 H   0  0  0  0  0
  1  2  1  0  0  0
  1  3  1  0  0  0
  1  5  1  0  0  0
  1  6  1  0  0  0
  2  7  1  0  0  0
  3  4  1  0  0  0
  3  8  1  0  0  0
  3  9  1  0  0  0
  4 10  1  0  0  0
M  END
$$$$
