EDO_1_H_305
  -ISIS-            3D

 10  9  0  0  0  0  0  0  0  0  1 V2000
   15.9560  -16.0960  -10.8930 C   0  0  0  0  0
   16.3670  -17.2050  -10.0850 O   0  0  0  0  0
   15.1460  -16.5610  -12.1100 C   0  0  0  0  0
   16.2320  -16.9880  -12.9510 O   0  0  0  0  0
   16.8358  -15.4905  -11.1997 H   0  0  0  0  0
   15.3199  -15.4324  -10.2692 H   0  0  0  0  0
   17.1046  -16.9298   -9.5570 H   0  0  0  0  0
   14.5931  -15.7272  -12.5890 H   0  0  0  0  0
   14.4556  -17.3952  -11.8705 H   0  0  0  0  0
   15.8674  -17.4953  -13.6640 H   0  0  0  0  0
  1  2  1  0  0  0
  1  3  1  0  0  0
  1  5  1  0  0  0
  1  6  1  0  0  0
  2  7  1  0  0  0
  3  4  1  0  0  0
  3  8  1  0  0  0
  3  9  1  0  0  0
  4 10  1  0  0  0
M  END
$$$$
