EDO_1_L_403
  -ISIS-            3D

 10  9  0  0  0  0  0  0  0  0  1 V2000
   10.0230  -63.0230    0.1030 C   0  0  0  0  0
    9.3470  -61.7590    0.1300 O   0  0  0  0  0
   10.0030  -63.5400   -1.3280 C   0  0  0  0  0
   10.6340  -64.8300   -1.4080 O   0  0  0  0  0
    9.4943  -63.7253    0.7800 H   0  0  0  0  0
   11.0618  -62.9126    0.4791 H   0  0  0  0  0
    9.9591  -61.0857   -0.1358 H   0  0  0  0  0
   10.5473  -62.8412   -1.9968 H   0  0  0  0  0
    8.9619  -63.6101   -1.7088 H   0  0  0  0  0
   10.0154  -65.4836   -1.1091 H   0  0  0  0  0
  1  2  1  0  0  0
  1  3  1  0  0  0
  1  5  1  0  0  0
  1  6  1  0  0  0
  2  7  1  0  0  0
  3  4  1  0  0  0
  3  8  1  0  0  0
  3  9  1  0  0  0
  4 10  1  0  0  0
M  END
$$$$
