EDO_2_B_502
  -ISIS-            3D

 10  9  0  0  0  0  0  0  0  0  1 V2000
  -39.2450   62.1480    0.1090 C   0  0  0  0  0
  -39.1330   61.7240    1.4720 O   0  0  0  0  0
  -39.1640   63.6680    0.0400 C   0  0  0  0  0
  -39.4210   64.0980   -1.3020 O   0  0  0  0  0
  -40.2006   61.7804   -0.3217 H   0  0  0  0  0
  -38.4220   61.6893   -0.4773 H   0  0  0  0  0
  -39.9858   61.7978    1.8798 H   0  0  0  0  0
  -38.1707   64.0328    0.3765 H   0  0  0  0  0
  -39.9255   64.1254    0.7053 H   0  0  0  0  0
  -38.6261   63.9905   -1.8082 H   0  0  0  0  0
  1  2  1  0  0  0
  1  3  1  0  0  0
  1  5  1  0  0  0
  1  6  1  0  0  0
  2  7  1  0  0  0
  3  4  1  0  0  0
  3  8  1  0  0  0
  3  9  1  0  0  0
  4 10  1  0  0  0
M  END
$$$$
