1PE_1_A_1305
  -ISIS-            3D

 38 37  0  0  0  0  0  0  0  0  1 V2000
   23.9100  -30.5130   -9.8330 O   0  0  0  0  0
   24.2640  -29.6250   -8.8070 C   0  0  0  0  0
   25.3110  -30.2990   -7.9210 C   0  0  0  0  0
   24.8210  -30.4820   -6.6190 O   0  0  0  0  0
   24.1540  -32.7400   -6.1810 C   0  0  0  0  0
   25.2480  -31.6820   -6.0370 C   0  0  0  0  0
   24.7110  -33.9080   -6.7170 O   0  0  0  0  0
   24.5570  -35.3000   -8.6570 C   0  0  0  0  0
   24.8550  -33.9020   -8.1140 C   0  0  0  0  0
   25.7060  -36.0980   -8.5530 O   0  0  0  0  0
   25.8620  -36.8060   -6.2310 C   0  0  0  0  0
   25.5830  -37.2000   -7.6870 C   0  0  0  0  0
   25.3680  -37.7990   -5.3710 O   0  0  0  0  0
   24.3950  -36.7170   -3.4550 C   0  0  0  0  0
   25.5540  -37.5520   -4.0030 C   0  0  0  0  0
   23.9990  -37.2260   -2.2130 O   0  0  0  0  0
   23.2413  -30.1052  -10.3671 H   0  0  0  0  0
   23.3638  -29.3463   -8.2200 H   0  0  0  0  0
   24.6744  -28.6924   -9.2489 H   0  0  0  0  0
   26.2258  -29.6721   -7.8683 H   0  0  0  0  0
   25.6222  -31.2569   -8.3810 H   0  0  0  0  0
   23.2921  -32.3893   -6.7839 H   0  0  0  0  0
   23.7438  -32.9824   -5.1784 H   0  0  0  0  0
   25.4193  -31.4922   -4.9564 H   0  0  0  0  0
   26.2300  -32.0091   -6.4339 H   0  0  0  0  0
   24.2938  -35.2247   -9.7331 H   0  0  0  0  0
   23.6768  -35.7454   -8.1505 H   0  0  0  0  0
   25.8771  -33.5751   -8.3937 H   0  0  0  0  0
   24.1398  -33.1923   -8.5792 H   0  0  0  0  0
   25.3699  -35.8517   -5.9788 H   0  0  0  0  0
   26.9530  -36.6683   -6.0798 H   0  0  0  0  0
   26.3189  -37.9711   -7.9970 H   0  0  0  0  0
   24.5850  -37.6724   -7.7955 H   0  0  0  0  0
   23.5225  -36.7701   -4.1391 H   0  0  0  0  0
   24.6727  -35.6455   -3.3698 H   0  0  0  0  0
   26.5360  -37.0773   -3.8022 H   0  0  0  0  0
   25.5753  -38.5371   -3.4913 H   0  0  0  0  0
   24.6232  -36.9493   -1.5547 H   0  0  0  0  0
  1  2  1  0  0  0
  1 17  1  0  0  0
  2  3  1  0  0  0
  2 18  1  0  0  0
  2 19  1  0  0  0
  3  4  1  0  0  0
  3 20  1  0  0  0
  3 21  1  0  0  0
  4  6  1  0  0  0
  5  6  1  0  0  0
  5  7  1  0  0  0
  5 22  1  0  0  0
  5 23  1  0  0  0
  6 24  1  0  0  0
  6 25  1  0  0  0
  7  9  1  0  0  0
  8  9  1  0  0  0
  8 10  1  0  0  0
  8 26  1  0  0  0
  8 27  1  0  0  0
  9 28  1  0  0  0
  9 29  1  0  0  0
 10 12  1  0  0  0
 11 12  1  0  0  0
 11 13  1  0  0  0
 11 30  1  0  0  0
 11 31  1  0  0  0
 12 32  1  0  0  0
 12 33  1  0  0  0
 13 15  1  0  0  0
 14 15  1  0  0  0
 14 16  1  0  0  0
 14 34  1  0  0  0
 14 35  1  0  0  0
 15 36  1  0  0  0
 15 37  1  0  0  0
 16 38  1  0  0  0
M  END
$$$$
