1PE_1_B_2102
  -ISIS-            3D

 38 37  0  0  0  0  0  0  0  0  1 V2000
   53.1380  -30.0480   -5.4840 O   0  0  0  0  0
   53.4120  -29.1030   -4.4860 C   0  0  0  0  0
   52.1860  -28.2120   -4.2910 C   0  0  0  0  0
   52.2790  -27.4890   -3.0940 O   0  0  0  0  0
   51.0510  -28.8020   -1.5150 C   0  0  0  0  0
   52.4120  -28.2600   -1.9340 C   0  0  0  0  0
   51.2140  -30.1380   -1.1410 O   0  0  0  0  0
   50.2950  -32.2800   -0.6120 C   0  0  0  0  0
   50.0250  -30.7870   -0.7900 C   0  0  0  0  0
   49.5110  -32.9860   -1.5230 O   0  0  0  0  0
   49.5520  -34.0950   -3.6510 C   0  0  0  0  0
   50.2300  -33.9030   -2.2970 C   0  0  0  0  0
   50.5180  -33.9850   -4.6600 O   0  0  0  0  0
   51.0720  -33.8840   -7.0050 C   0  0  0  0  0
   50.1060  -34.4030   -5.9360 C   0  0  0  0  0
   51.7590  -32.7450   -6.5540 O   0  0  0  0  0
   52.5839  -30.7389   -5.1383 H   0  0  0  0  0
   54.2769  -28.4848   -4.8048 H   0  0  0  0  0
   53.7423  -29.6572   -3.5904 H   0  0  0  0  0
   51.2578  -28.8185   -4.2926 H   0  0  0  0  0
   52.0946  -27.4985   -5.1358 H   0  0  0  0  0
   50.3123  -28.7286   -2.3380 H   0  0  0  0  0
   50.6471  -28.2138   -0.6644 H   0  0  0  0  0
   52.7830  -27.5910   -1.1289 H   0  0  0  0  0
   53.1764  -29.0496   -2.0049 H   0  0  0  0  0
   50.0135  -32.5974    0.4137 H   0  0  0  0  0
   51.3765  -32.5003   -0.7145 H   0  0  0  0  0
   49.2551  -30.6259   -1.5734 H   0  0  0  0  0
   49.6291  -30.3540    0.1525 H   0  0  0  0  0
   48.7659  -33.3280   -3.8118 H   0  0  0  0  0
   49.0612  -35.0900   -3.6883 H   0  0  0  0  0
   50.3190  -34.8661   -1.7532 H   0  0  0  0  0
   51.2626  -33.5352   -2.4741 H   0  0  0  0  0
   50.5259  -33.6551   -7.9444 H   0  0  0  0  0
   51.8140  -34.6758   -7.2443 H   0  0  0  0  0
   49.0941  -33.9952   -6.1458 H   0  0  0  0  0
   50.0299  -35.5094   -5.9738 H   0  0  0  0  0
   52.3546  -32.4609   -7.2360 H   0  0  0  0  0
  1  2  1  0  0  0
  1 17  1  0  0  0
  2  3  1  0  0  0
  2 18  1  0  0  0
  2 19  1  0  0  0
  3  4  1  0  0  0
  3 20  1  0  0  0
  3 21  1  0  0  0
  4  6  1  0  0  0
  5  6  1  0  0  0
  5  7  1  0  0  0
  5 22  1  0  0  0
  5 23  1  0  0  0
  6 24  1  0  0  0
  6 25  1  0  0  0
  7  9  1  0  0  0
  8  9  1  0  0  0
  8 10  1  0  0  0
  8 26  1  0  0  0
  8 27  1  0  0  0
  9 28  1  0  0  0
  9 29  1  0  0  0
 10 12  1  0  0  0
 11 12  1  0  0  0
 11 13  1  0  0  0
 11 30  1  0  0  0
 11 31  1  0  0  0
 12 32  1  0  0  0
 12 33  1  0  0  0
 13 15  1  0  0  0
 14 15  1  0  0  0
 14 16  1  0  0  0
 14 34  1  0  0  0
 14 35  1  0  0  0
 15 36  1  0  0  0
 15 37  1  0  0  0
 16 38  1  0  0  0
M  END
$$$$
