DMS_1_A_1003
  -ISIS-            3D

 10  9  0  0  0  0  0  0  0  0  1 V2000
    6.1770   -0.9620   -6.2660 S   0  0  0  0  0
    7.1170   -0.7610   -7.3610 O   0  0  0  0  0
    7.2320   -1.0010   -4.8290 C   0  0  0  0  0
    5.7290   -2.6580   -6.3460 C   0  0  0  0  0
    6.6425   -1.3085   -3.9411 H   0  0  0  0  0
    7.6479    0.0116   -4.6502 H   0  0  0  0  0
    8.0674   -1.7152   -4.9814 H   0  0  0  0  0
    5.1538   -2.9379   -5.4397 H   0  0  0  0  0
    6.6336   -3.2964   -6.4174 H   0  0  0  0  0
    5.0941   -2.8308   -7.2391 H   0  0  0  0  0
  1  2  2  0  0  0
  1  3  1  0  0  0
  1  4  1  0  0  0
  3  5  1  0  0  0
  3  6  1  0  0  0
  3  7  1  0  0  0
  4  8  1  0  0  0
  4  9  1  0  0  0
  4 10  1  0  0  0
M  END
$$$$
