DMS_1_A_1005
  -ISIS-            3D

 10  9  0  0  0  0  0  0  0  0  1 V2000
    7.5050  -21.2610   28.9220 S   0  0  0  0  0
    7.0860  -22.5540   28.3360 O   0  0  0  0  0
    8.0900  -21.6860   30.5380 C   0  0  0  0  0
    5.9750  -20.4770   29.3610 C   0  0  0  0  0
    8.2672  -20.7630   31.1270 H   0  0  0  0  0
    9.0451  -22.2432   30.4494 H   0  0  0  0  0
    7.3478  -22.3210   31.0644 H   0  0  0  0  0
    6.1793  -19.5703   29.9663 H   0  0  0  0  0
    5.3368  -21.1724   29.9443 H   0  0  0  0  0
    5.4363  -20.1782   28.4385 H   0  0  0  0  0
  1  2  2  0  0  0
  1  3  1  0  0  0
  1  4  1  0  0  0
  3  5  1  0  0  0
  3  6  1  0  0  0
  3  7  1  0  0  0
  4  8  1  0  0  0
  4  9  1  0  0  0
  4 10  1  0  0  0
M  END
$$$$
