DMS_1_A_901
  -ISIS-            3D

 10  9  0  0  0  0  0  0  0  0  1 V2000
   -4.3500    6.2440   -0.1040 S   0  0  0  0  0
   -3.1210    5.4630    0.1970 O   0  0  0  0  0
   -4.4230    7.5520    1.0830 C   0  0  0  0  0
   -5.7160    5.3100    0.5430 C   0  0  0  0  0
   -5.3919    8.0853    0.9995 H   0  0  0  0  0
   -3.6026    8.2719    0.8856 H   0  0  0  0  0
   -4.3089    7.1513    2.1112 H   0  0  0  0  0
   -6.6482    5.9071    0.4747 H   0  0  0  0  0
   -5.5304    5.0328    1.6011 H   0  0  0  0  0
   -5.8413    4.3839   -0.0545 H   0  0  0  0  0
  1  2  2  0  0  0
  1  3  1  0  0  0
  1  4  1  0  0  0
  3  5  1  0  0  0
  3  6  1  0  0  0
  3  7  1  0  0  0
  4  8  1  0  0  0
  4  9  1  0  0  0
  4 10  1  0  0  0
M  END
$$$$
