APR_1_A_201
  -ISIS-            3D

 58 61  0  0  0  0  0  0  0  0  1 V2000
   33.7840   15.0930   42.3490 N   0  0  0  0  0
   33.2690   16.1360   41.6830 C   0  0  0  0  0
   33.3090   16.4140   40.3820 N   0  0  0  0  0
   33.9970   15.4660   39.7290 C   0  0  0  0  0
   34.6060   14.3570   40.2730 C   0  0  0  0  0
   34.5010   14.1790   41.6630 C   0  0  0  0  0
   35.0170   13.1490   42.3250 N   0  0  0  0  0
   35.2250   13.6140   39.2760 N   0  0  0  0  0
   34.9790   14.2700   38.1650 C   0  0  0  0  0
   34.2370   15.4110   38.3840 N   0  0  0  0  0
   33.7640   16.3680   37.4010 C   0  0  0  0  0
   34.5300   16.3520   36.0810 C   0  0  0  0  0
   35.7110   17.1190   36.1380 O   0  0  0  0  0
   33.4860   16.9790   35.1570 C   0  0  0  0  0
   33.6290   18.3740   35.3820 O   0  0  0  0  0
   32.4310   16.0430   37.0750 O   0  0  0  0  0
   32.1840   16.3480   35.6780 C   0  0  0  0  0
   31.7300   15.0740   35.0000 C   0  0  0  0  0
   32.8620   14.1820   34.8060 O   0  0  0  0  0
   32.5790   12.6240   34.5480 P   0  0  0  0  0
   32.2710   11.9230   35.8280 O   0  0  0  0  0
   33.6590   12.0510   33.6900 O   0  0  0  0  0
   31.2200   12.7170   33.7170 O   0  0  0  0  0
   30.8240   12.4860   32.1850 P   0  0  0  0  0
   29.3350   12.5200   32.0870 O   0  0  0  0  0
   31.6310   13.4080   31.3310 O   0  0  0  0  0
   31.3520   10.9920   31.9790 O   0  0  0  0  0
   30.4770    9.8510   31.9190 C   0  0  0  0  0
   32.3300    8.7050   32.9090 O   0  0  0  0  0
   32.8180    7.5960   34.8620 O   0  0  0  0  0
   32.3850    7.4540   33.5630 C   0  0  0  0  0
   30.7640    5.5980   33.8150 O   0  0  0  0  0
   30.9390    6.9580   33.4940 C   0  0  0  0  0
   31.2620    6.2740   31.2110 O   0  0  0  0  0
   30.6500    7.2610   32.0300 C   0  0  0  0  0
   31.3470    8.6180   31.8500 C   0  0  0  0  0
   32.7118   16.8600   42.3024 H   0  0  0  0  0
   35.3062   13.9736   37.1614 H   0  0  0  0  0
   33.7907   17.3885   37.8410 H   0  0  0  0  0
   34.7656   15.3287   35.7356 H   0  0  0  0  0
   35.4778   18.0388   36.0991 H   0  0  0  0  0
   33.6779   16.7345   34.0919 H   0  0  0  0  0
   33.1217   18.8383   34.7300 H   0  0  0  0  0
   31.3636   17.0945   35.6143 H   0  0  0  0  0
   31.2951   15.3241   34.0091 H   0  0  0  0  0
   30.9322   14.5924   35.6033 H   0  0  0  0  0
   29.8173    9.9167   31.0290 H   0  0  0  0  0
   29.8363    9.8209   32.8251 H   0  0  0  0  0
   33.6727    8.0055   34.8534 H   0  0  0  0  0
   33.0601    6.7674   33.0122 H   0  0  0  0  0
   31.0943    5.4758   34.6961 H   0  0  0  0  0
   30.2886    7.5839   34.1417 H   0  0  0  0  0
   31.0544    5.4317   31.5999 H   0  0  0  0  0
   29.5626    7.3180   31.8201 H   0  0  0  0  0
   31.8764    8.6228   30.8722 H   0  0  0  0  0
   35.5445   12.4705   41.7602 H   0  0  0  0  0
   34.8392   13.1293   43.3369 H   0  0  0  0  0
   31.6301   12.5591   36.5079 H   0  0  0  0  0
  1  2  2  0  0  0
  1  6  1  0  0  0
  2  3  1  0  0  0
  2 37  1  0  0  0
  3  4  2  0  0  0
  4  5  1  0  0  0
  4 10  1  0  0  0
  5  6  2  0  0  0
  5  8  1  0  0  0
  6  7  1  0  0  0
  7 56  1  0  0  0
  7 57  1  0  0  0
  8  9  2  0  0  0
  9 10  1  0  0  0
  9 38  1  0  0  0
 10 11  1  0  0  0
 11 12  1  0  0  0
 11 16  1  0  0  0
 11 39  1  0  0  0
 12 13  1  0  0  0
 12 14  1  0  0  0
 12 40  1  0  0  0
 13 41  1  0  0  0
 14 15  1  0  0  0
 14 17  1  0  0  0
 14 42  1  0  0  0
 15 43  1  0  0  0
 16 17  1  0  0  0
 17 18  1  0  0  0
 17 44  1  0  0  0
 18 19  1  0  0  0
 18 45  1  0  0  0
 18 46  1  0  0  0
 19 20  1  0  0  0
 20 21  1  0  0  0
 20 22  2  0  0  0
 20 23  1  0  0  0
 23 24  1  0  0  0
 24 25  2  0  0  0
 24 26  2  0  0  0
 24 27  1  0  0  0
 27 28  1  0  0  0
 28 36  1  0  0  0
 28 47  1  0  0  0
 28 48  1  0  0  0
 29 31  1  0  0  0
 29 36  1  0  0  0
 30 31  1  0  0  0
 30 49  1  0  0  0
 31 33  1  0  0  0
 31 50  1  0  0  0
 32 33  1  0  0  0
 32 51  1  0  0  0
 33 35  1  0  0  0
 33 52  1  0  0  0
 34 35  1  0  0  0
 34 53  1  0  0  0
 35 36  1  0  0  0
 35 54  1  0  0  0
 36 55  1  0  0  0
 21 58  1  0  0  0
M  END
$$$$
