NVU_1_A_201
  -ISIS-            3D

 19 20  0  0  0  0  0  0  0  0  1 V2000
  -43.9210  -31.6280    0.6280 C   0  0  0  0  0
  -43.4130  -32.2730    1.9060 C   0  0  0  0  0
  -43.3410  -33.5460    1.9660 O   0  0  0  0  0
  -43.0590  -31.6040    2.8720 O   0  0  0  0  0
  -44.0080  -32.5860   -0.5300 C   0  0  0  0  0
  -45.0120  -33.5870   -0.8210 C   0  0  0  0  0
  -46.1910  -33.9520   -0.2740 C   0  0  0  0  0
  -46.9690  -34.9220   -0.7930 C   0  0  0  0  0
  -46.6020  -35.5970   -1.8900 C   0  0  0  0  0
  -45.4170  -35.2190   -2.5480 C   0  0  0  0  0
  -44.5960  -34.2040   -1.9780 C   0  0  0  0  0
  -43.5320  -33.5950   -2.4010 O   0  0  0  0  0
  -43.1540  -32.6880   -1.5130 N   0  0  0  0  0
  -43.2584  -30.7769    0.3514 H   0  0  0  0  0
  -44.9294  -31.1944    0.8150 H   0  0  0  0  0
  -46.5339  -33.4323    0.6375 H   0  0  0  0  0
  -47.9217  -35.1764   -0.2964 H   0  0  0  0  0
  -47.2269  -36.4104   -2.2954 H   0  0  0  0  0
  -45.1184  -35.7019   -3.4903 H   0  0  0  0  0
  1  2  1  0  0  0
  1  5  1  0  0  0
  1 14  1  0  0  0
  1 15  1  0  0  0
  2  3  2  0  0  0
  2  4  2  0  0  0
  5  6  2  0  0  0
  5 13  1  0  0  0
  6  7  1  0  0  0
  6 11  1  0  0  0
  7  8  2  0  0  0
  7 16  1  0  0  0
  8  9  1  0  0  0
  8 17  1  0  0  0
  9 10  1  0  0  0
  9 18  1  0  0  0
 10 11  1  0  0  0
 10 19  1  0  0  0
 11 12  1  0  0  0
 12 13  1  0  0  0
M  END
$$$$
