NNA_1_B_401
  -ISIS-            3D

112115  0  0  0  0  0  0  0  0  1 V2000
   25.8790    4.6500   11.2620 C   0  0  0  0  0
   26.7470    4.1540   10.6150 O   0  0  0  0  0
   24.9200    5.6460   10.7080 N   0  0  0  0  0
   25.0140    6.1280    9.3020 C   0  0  0  0  0
   23.8480    7.0970    9.0980 C   0  0  0  0  0
   25.0030    4.9520    8.3020 C   0  0  0  0  0
   22.5430    6.3000    9.2090 C   0  0  0  0  0
   23.6460    4.2400    8.2170 C   0  0  0  0  0
   22.5030    5.2500    8.0900 C   0  0  0  0  0
   26.3450    6.9320    9.1970 C   0  0  0  0  0
   26.5540    8.3230   10.4240 S   0  0  0  0  0
   25.8360    7.9310   11.6710 O   0  0  0  0  0
   25.9430    9.4730    9.6900 O   0  0  0  0  0
   28.4020    8.5160   10.6710 C   0  0  0  0  0
   29.0490    7.1580   11.1380 C   0  0  0  0  0
   29.0520    8.9810    9.3260 C   0  0  0  0  0
   28.5490    9.6280   11.7600 C   0  0  0  0  0
   25.7140    4.2840   12.6820 N   0  0  0  0  0
   26.6320    3.3090   13.2050 C   0  0  0  0  0
   27.1540    3.7210   14.6080 C   0  0  0  0  0
   27.8290    2.4980   15.2740 C   0  0  0  0  0
   28.1970    4.8700   14.4610 C   0  0  0  0  0
   25.9790    4.1640   15.5080 C   0  0  0  0  0
   25.8280    2.0070   13.2510 C   0  0  0  0  0
   24.7790    1.9190   13.8100 O   0  0  0  0  0
   26.3950    0.8050   12.5520 N   0  0  0  0  0
   27.5390    0.7900   11.8900 C   0  0  0  0  0
   25.6750   -0.6000   12.5360 C   0  0  0  0  0
   26.2040   -1.2930   11.4960 C   0  0  0  0  0
   27.4630   -0.5050   11.0430 C   0  0  0  0  0
   26.4810   -1.0760    9.9820 C   0  0  0  0  0
   26.9970   -2.2730    9.1340 C   0  0  0  0  0
   25.5680   -0.0020    9.3410 C   0  0  0  0  0
   25.8580   -1.2460   13.9190 C   0  0  0  0  0
   26.9440   -1.3860   14.3660 O   0  0  0  0  0
   24.6570   -1.6480   14.7160 N   0  0  0  0  0
   24.8940   -2.2440   16.0220 C   0  0  0  0  0
   24.1430   -1.3970   17.0720 C   0  0  0  0  0
   24.9260   -0.0370   17.2270 C   0  0  0  0  0
   24.0680    1.1500   17.7850 C   0  0  0  0  0
   22.6400    0.7410   18.2600 C   0  0  0  0  0
   25.0610   -4.3510   14.8840 O   0  0  0  0  0
   24.4490   -3.7060   15.9340 C   0  0  0  0  0
   24.1870   -4.2250   18.2520 O   0  0  0  0  0
   26.0410   -5.2380   17.2950 N   0  0  0  0  0
   26.4700   -5.8470   18.5360 C   0  0  0  0  0
   27.5740   -4.9970   19.1760 C   0  0  0  0  0
   27.9130   -6.3590   18.5510 C   0  0  0  0  0
   24.8230   -4.3790   17.2740 C   0  0  0  0  0
   24.2218    6.0406   11.3513 H   0  0  0  0  0
   23.9158    7.5852    8.0989 H   0  0  0  0  0
   23.8374    7.9103    9.8563 H   0  0  0  0  0
   25.8048    4.2135    8.5141 H   0  0  0  0  0
   25.2370    5.3586    7.2900 H   0  0  0  0  0
   21.6783    6.9943    9.0924 H   0  0  0  0  0
   22.4216    5.8175   10.2035 H   0  0  0  0  0
   23.4956    3.6238    9.1339 H   0  0  0  0  0
   23.6359    3.5347    7.3542 H   0  0  0  0  0
   22.5528    5.7528    7.0965 H   0  0  0  0  0
   21.5276    4.7108    8.1202 H   0  0  0  0  0
   26.4693    7.3768    8.1880 H   0  0  0  0  0
   27.2050    6.2524    9.3393 H   0  0  0  0  0
   30.1203    7.2982   11.3990 H   0  0  0  0  0
   29.0142    6.3733   10.3546 H   0  0  0  0  0
   28.5444    6.7548   12.0410 H   0  0  0  0  0
   30.1462    9.1380    9.4431 H   0  0  0  0  0
   28.6228    9.9409    8.9659 H   0  0  0  0  0
   28.9165    8.2315    8.5169 H   0  0  0  0  0
   29.6194    9.8402   11.9716 H   0  0  0  0  0
   28.0827    9.3301   12.7243 H   0  0  0  0  0
   28.0846   10.5878   11.4451 H   0  0  0  0  0
   24.9480    4.6876   13.2325 H   0  0  0  0  0
   27.5207    3.1894   12.5513 H   0  0  0  0  0
   28.2636    2.7616   16.2640 H   0  0  0  0  0
   28.6630    2.1002   14.6545 H   0  0  0  0  0
   27.1212    1.6602   15.4519 H   0  0  0  0  0
   28.6124    5.1731   15.4478 H   0  0  0  0  0
   27.7411    5.7774   14.0072 H   0  0  0  0  0
   29.0561    4.5715   13.8198 H   0  0  0  0  0
   26.3285    4.3498   16.5483 H   0  0  0  0  0
   25.1713    3.4079   15.5860 H   0  0  0  0  0
   25.5169    5.1181   15.1743 H   0  0  0  0  0
   28.4165    0.7376   12.5732 H   0  0  0  0  0
   27.6804    1.6467   11.1968 H   0  0  0  0  0
   24.5828   -0.4611   12.3604 H   0  0  0  0  0
   26.3443   -2.3472   11.7448 H   0  0  0  0  0
   28.4113   -1.0454   11.0456 H   0  0  0  0  0
   27.5987   -1.9043    8.2743 H   0  0  0  0  0
   26.1392   -2.8570    8.7338 H   0  0  0  0  0
   27.6332   -2.9608    9.7329 H   0  0  0  0  0
   26.0867    0.4795    8.4830 H   0  0  0  0  0
   25.2803    0.7977   10.0567 H   0  0  0  0  0
   24.6342   -0.4712    8.9604 H   0  0  0  0  0
   23.7100   -1.4972   14.3427 H   0  0  0  0  0
   25.9762   -2.2402   16.2888 H   0  0  0  0  0
   24.1006   -1.8986   18.0621 H   0  0  0  0  0
   23.0997   -1.2407   16.7228 H   0  0  0  0  0
   25.3388    0.2785   16.2431 H   0  0  0  0  0
   25.8059   -0.2019   17.8915 H   0  0  0  0  0
   23.9662    1.9322   16.9981 H   0  0  0  0  0
   24.6126    1.6274   18.6324 H   0  0  0  0  0
   22.1292    1.6029   18.7456 H   0  0  0  0  0
   22.6690   -0.0787   19.0118 H   0  0  0  0  0
   21.9880    0.4258   17.4160 H   0  0  0  0  0
   24.6016   -5.1607   14.7013 H   0  0  0  0  0
   23.3426   -3.7412   15.8089 H   0  0  0  0  0
   26.5421   -5.3508   16.4008 H   0  0  0  0  0
   25.7641   -6.3355   19.2035 H   0  0  0  0  0
   27.5708   -4.9668   20.2622 H   0  0  0  0  0
   27.9044   -4.1282   18.6129 H   0  0  0  0  0
   28.4463   -6.3226   17.6052 H   0  0  0  0  0
   28.1186   -7.1601   19.2557 H   0  0  0  0  0
  1  2  2  0  0  0
  1  3  1  0  0  0
  1 18  1  0  0  0
  3  4  1  0  0  0
  3 50  1  0  0  0
  4  5  1  0  0  0
  4  6  1  0  0  0
  4 10  1  0  0  0
  5  7  1  0  0  0
  5 51  1  0  0  0
  5 52  1  0  0  0
  6  8  1  0  0  0
  6 53  1  0  0  0
  6 54  1  0  0  0
  7  9  1  0  0  0
  7 55  1  0  0  0
  7 56  1  0  0  0
  8  9  1  0  0  0
  8 57  1  0  0  0
  8 58  1  0  0  0
  9 59  1  0  0  0
  9 60  1  0  0  0
 10 11  1  0  0  0
 10 61  1  0  0  0
 10 62  1  0  0  0
 11 12  2  0  0  0
 11 13  2  0  0  0
 11 14  1  0  0  0
 14 15  1  0  0  0
 14 16  1  0  0  0
 14 17  1  0  0  0
 15 63  1  0  0  0
 15 64  1  0  0  0
 15 65  1  0  0  0
 16 66  1  0  0  0
 16 67  1  0  0  0
 16 68  1  0  0  0
 17 69  1  0  0  0
 17 70  1  0  0  0
 17 71  1  0  0  0
 18 19  1  0  0  0
 18 72  1  0  0  0
 19 20  1  0  0  0
 19 24  1  0  0  0
 19 73  1  0  0  0
 20 21  1  0  0  0
 20 22  1  0  0  0
 20 23  1  0  0  0
 21 74  1  0  0  0
 21 75  1  0  0  0
 21 76  1  0  0  0
 22 77  1  0  0  0
 22 78  1  0  0  0
 22 79  1  0  0  0
 23 80  1  0  0  0
 23 81  1  0  0  0
 23 82  1  0  0  0
 24 25  2  0  0  0
 24 26  1  0  0  0
 26 27  1  0  0  0
 26 28  1  0  0  0
 27 30  1  0  0  0
 27 83  1  0  0  0
 27 84  1  0  0  0
 28 29  1  0  0  0
 28 34  1  0  0  0
 28 85  1  0  0  0
 29 30  1  0  0  0
 29 31  1  0  0  0
 29 86  1  0  0  0
 30 31  1  0  0  0
 30 87  1  0  0  0
 31 32  1  0  0  0
 31 33  1  0  0  0
 32 88  1  0  0  0
 32 89  1  0  0  0
 32 90  1  0  0  0
 33 91  1  0  0  0
 33 92  1  0  0  0
 33 93  1  0  0  0
 34 35  2  0  0  0
 34 36  1  0  0  0
 36 37  1  0  0  0
 36 94  1  0  0  0
 37 38  1  0  0  0
 37 43  1  0  0  0
 37 95  1  0  0  0
 38 39  1  0  0  0
 38 96  1  0  0  0
 38 97  1  0  0  0
 39 40  1  0  0  0
 39 98  1  0  0  0
 39 99  1  0  0  0
 40 41  1  0  0  0
 40100  1  0  0  0
 40101  1  0  0  0
 41102  1  0  0  0
 41103  1  0  0  0
 41104  1  0  0  0
 42 43  1  0  0  0
 42105  1  0  0  0
 43 49  1  0  0  0
 43106  1  0  0  0
 44 49  2  0  0  0
 45 46  1  0  0  0
 45 49  1  0  0  0
 45107  1  0  0  0
 46 47  1  0  0  0
 46 48  1  0  0  0
 46108  1  0  0  0
 47 48  1  0  0  0
 47109  1  0  0  0
 47110  1  0  0  0
 48111  1  0  0  0
 48112  1  0  0  0
M  END
$$$$
