DMS_2_A_402
  -ISIS-            3D

 10  9  0  0  0  0  0  0  0  0  1 V2000
   -6.2620   -2.6140  -33.5030 S   0  0  0  0  0
   -7.1120   -2.2040  -34.6610 O   0  0  0  0  0
   -5.6840   -4.3350  -33.6010 C   0  0  0  0  0
   -4.7400   -1.6920  -33.1340 C   0  0  0  0  0
   -5.1953   -4.6163  -32.6459 H   0  0  0  0  0
   -4.9598   -4.4365  -34.4351 H   0  0  0  0  0
   -6.5511   -5.0028  -33.7808 H   0  0  0  0  0
   -4.3017   -2.0649  -32.1858 H   0  0  0  0  0
   -4.9825   -0.6148  -33.0292 H   0  0  0  0  0
   -4.0135   -1.8286  -33.9610 H   0  0  0  0  0
  1  2  2  0  0  0
  1  3  1  0  0  0
  1  4  1  0  0  0
  3  5  1  0  0  0
  3  6  1  0  0  0
  3  7  1  0  0  0
  4  8  1  0  0  0
  4  9  1  0  0  0
  4 10  1  0  0  0
M  END
$$$$
