DMS_1_A_401
  -ISIS-            3D

 10  9  0  0  0  0  0  0  0  0  1 V2000
    7.1220  -28.1990   21.3190 S   0  0  0  0  0
    8.0610  -27.2800   22.0710 O   0  0  0  0  0
    6.1160  -27.1200   20.2890 C   0  0  0  0  0
    5.9280  -28.9740   22.4400 C   0  0  0  0  0
    5.3714  -27.7269   19.7345 H   0  0  0  0  0
    6.7671  -26.5896   19.5643 H   0  0  0  0  0
    5.5894  -26.3778   20.9234 H   0  0  0  0  0
    5.1990  -29.5668   21.8507 H   0  0  0  0  0
    5.3925  -28.1912   23.0152 H   0  0  0  0  0
    6.4659  -29.6445   23.1410 H   0  0  0  0  0
  1  2  2  0  0  0
  1  3  1  0  0  0
  1  4  1  0  0  0
  3  5  1  0  0  0
  3  6  1  0  0  0
  3  7  1  0  0  0
  4  8  1  0  0  0
  4  9  1  0  0  0
  4 10  1  0  0  0
M  END
$$$$
