DMS_2_A_404
  -ISIS-            3D

 10  9  0  0  0  0  0  0  0  0  1 V2000
   -9.7820    1.4440  -21.1870 S   0  0  0  0  0
   -9.5950    2.8470  -21.6600 O   0  0  0  0  0
   -8.1350    0.7090  -21.1860 C   0  0  0  0  0
  -10.7400    0.8780  -22.6250 C   0  0  0  0  0
   -8.2242   -0.3893  -21.0605 H   0  0  0  0  0
   -7.5450    1.1283  -20.3455 H   0  0  0  0  0
   -7.6237    0.9304  -22.1453 H   0  0  0  0  0
  -10.8819   -0.2199  -22.5569 H   0  0  0  0  0
  -10.1976    1.1191  -23.5621 H   0  0  0  0  0
  -11.7321    1.3746  -22.6290 H   0  0  0  0  0
  1  2  2  0  0  0
  1  3  1  0  0  0
  1  4  1  0  0  0
  3  5  1  0  0  0
  3  6  1  0  0  0
  3  7  1  0  0  0
  4  8  1  0  0  0
  4  9  1  0  0  0
  4 10  1  0  0  0
M  END
$$$$
