EDO_1_A_309
  -ISIS-            3D

 10  9  0  0  0  0  0  0  0  0  1 V2000
   19.0230   -6.2410   18.4920 C   0  0  0  0  0
   17.8080   -6.8450   18.9510 O   0  0  0  0  0
   19.4330   -6.8690   17.1660 C   0  0  0  0  0
   20.6100   -6.2170   16.6720 O   0  0  0  0  0
   19.8215   -6.3847   19.2504 H   0  0  0  0  0
   18.8653   -5.1484   18.3707 H   0  0  0  0  0
   17.5969   -6.4796   19.8002 H   0  0  0  0  0
   18.6148   -6.7908   16.4191 H   0  0  0  0  0
   19.6522   -7.9482   17.3024 H   0  0  0  0  0
   20.3437   -5.4639   16.1614 H   0  0  0  0  0
  1  2  1  0  0  0
  1  3  1  0  0  0
  1  5  1  0  0  0
  1  6  1  0  0  0
  2  7  1  0  0  0
  3  4  1  0  0  0
  3  8  1  0  0  0
  3  9  1  0  0  0
  4 10  1  0  0  0
M  END
$$$$
