EDO_1_A_306
  -ISIS-            3D

 10  9  0  0  0  0  0  0  0  0  1 V2000
   33.8490   -2.2750   -0.9240 C   0  0  0  0  0
   34.3270   -1.3760    0.0830 O   0  0  0  0  0
   33.9640   -3.7100   -0.4220 C   0  0  0  0  0
   33.1420   -3.8790    0.7380 O   0  0  0  0  0
   34.4526   -2.1360   -1.8445 H   0  0  0  0  0
   32.7978   -2.0249   -1.1783 H   0  0  0  0  0
   33.9537   -1.6694    0.9063 H   0  0  0  0  0
   35.0157   -3.9446   -0.1563 H   0  0  0  0  0
   33.6601   -4.4289   -1.2122 H   0  0  0  0  0
   32.2725   -4.1330    0.4579 H   0  0  0  0  0
  1  2  1  0  0  0
  1  3  1  0  0  0
  1  5  1  0  0  0
  1  6  1  0  0  0
  2  7  1  0  0  0
  3  4  1  0  0  0
  3  8  1  0  0  0
  3  9  1  0  0  0
  4 10  1  0  0  0
M  END
$$$$
