DMS_2_A_402
  -ISIS-            3D

 10  9  0  0  0  0  0  0  0  0  1 V2000
   -6.0390   -1.0570    6.4250 S   0  0  0  0  0
   -6.9860   -0.8210    7.5470 O   0  0  0  0  0
   -7.0010   -0.9230    4.9270 C   0  0  0  0  0
   -5.7530   -2.7930    6.3420 C   0  0  0  0  0
   -6.3828   -1.2185    4.0546 H   0  0  0  0  0
   -7.3260    0.1295    4.7948 H   0  0  0  0  0
   -7.8980   -1.5732    4.9834 H   0  0  0  0  0
   -5.1657   -3.0368    5.4332 H   0  0  0  0  0
   -6.7146   -3.3454    6.3195 H   0  0  0  0  0
   -5.1765   -3.1127    7.2343 H   0  0  0  0  0
  1  2  2  0  0  0
  1  3  1  0  0  0
  1  4  1  0  0  0
  3  5  1  0  0  0
  3  6  1  0  0  0
  3  7  1  0  0  0
  4  8  1  0  0  0
  4  9  1  0  0  0
  4 10  1  0  0  0
M  END
$$$$
