DMS_2_A_1002
  -ISIS-            3D

 10  9  0  0  0  0  0  0  0  0  1 V2000
   -7.0030  -28.1450  -21.4840 S   0  0  0  0  0
   -7.6200  -27.1320  -22.3490 O   0  0  0  0  0
   -5.6800  -28.7490  -22.5080 C   0  0  0  0  0
   -6.0270  -27.2620  -20.3060 C   0  0  0  0  0
   -5.0237  -29.4190  -21.9159 H   0  0  0  0  0
   -5.0800  -27.9051  -22.9067 H   0  0  0  0  0
   -6.1042  -29.3239  -23.3567 H   0  0  0  0  0
   -5.3802  -27.9693  -19.7477 H   0  0  0  0  0
   -6.6960  -26.7461  -19.5872 H   0  0  0  0  0
   -5.3934  -26.5063  -20.8143 H   0  0  0  0  0
  1  2  2  0  0  0
  1  3  1  0  0  0
  1  4  1  0  0  0
  3  5  1  0  0  0
  3  6  1  0  0  0
  3  7  1  0  0  0
  4  8  1  0  0  0
  4  9  1  0  0  0
  4 10  1  0  0  0
M  END
$$$$
