DMS_2_A_1007
  -ISIS-            3D

 10  9  0  0  0  0  0  0  0  0  1 V2000
   -7.1290  -21.0830  -28.8650 S   0  0  0  0  0
   -5.8180  -20.6380  -29.4330 O   0  0  0  0  0
   -6.8740  -22.7940  -28.5580 C   0  0  0  0  0
   -8.1540  -21.2720  -30.2800 C   0  0  0  0  0
   -7.8390  -23.2821  -28.3112 H   0  0  0  0  0
   -6.1867  -22.9138  -27.6955 H   0  0  0  0  0
   -6.4268  -23.2911  -29.4433 H   0  0  0  0  0
   -9.0956  -21.7868  -29.9992 H   0  0  0  0  0
   -7.6355  -21.8576  -31.0668 H   0  0  0  0  0
   -8.4060  -20.2712  -30.6868 H   0  0  0  0  0
  1  2  2  0  0  0
  1  3  1  0  0  0
  1  4  1  0  0  0
  3  5  1  0  0  0
  3  6  1  0  0  0
  3  7  1  0  0  0
  4  8  1  0  0  0
  4  9  1  0  0  0
  4 10  1  0  0  0
M  END
$$$$
