DMS_1_A_505
  -ISIS-            3D

 10  9  0  0  0  0  0  0  0  0  1 V2000
   20.6560   27.7660    4.1060 S   0  0  0  0  0
   20.9700   27.6650    2.6890 O   0  0  0  0  0
   20.6940   26.1440    4.8240 C   0  0  0  0  0
   18.9900   28.1480    4.3420 C   0  0  0  0  0
   20.4096   26.1989    5.8947 H   0  0  0  0  0
   21.7210   25.7321    4.7467 H   0  0  0  0  0
   19.9931   25.4707    4.2891 H   0  0  0  0  0
   18.7511   28.1571    5.4251 H   0  0  0  0  0
   18.3448   27.4043    3.8309 H   0  0  0  0  0
   18.7772   29.1531    3.9239 H   0  0  0  0  0
  1  2  2  0  0  0
  1  3  1  0  0  0
  1  4  1  0  0  0
  3  5  1  0  0  0
  3  6  1  0  0  0
  3  7  1  0  0  0
  4  8  1  0  0  0
  4  9  1  0  0  0
  4 10  1  0  0  0
M  END
$$$$
