DMS_2_A_402
  -ISIS-            3D

 10  9  0  0  0  0  0  0  0  0  1 V2000
   -6.1980   -1.0050    6.3150 S   0  0  0  0  0
   -7.2700   -0.9540    7.3190 O   0  0  0  0  0
   -7.0540   -0.8010    4.7610 C   0  0  0  0  0
   -5.7890   -2.7020    6.1010 C   0  0  0  0  0
   -6.3533   -0.9768    3.9193 H   0  0  0  0  0
   -7.4428    0.2356    4.6908 H   0  0  0  0  0
   -7.9041   -1.5105    4.6891 H   0  0  0  0  0
   -5.1130   -2.8216    5.2298 H   0  0  0  0  0
   -6.7049   -3.3080    5.9428 H   0  0  0  0  0
   -5.2679   -3.0713    7.0079 H   0  0  0  0  0
  1  2  2  0  0  0
  1  3  1  0  0  0
  1  4  1  0  0  0
  3  5  1  0  0  0
  3  6  1  0  0  0
  3  7  1  0  0  0
  4  8  1  0  0  0
  4  9  1  0  0  0
  4 10  1  0  0  0
M  END
$$$$
