DMS_1_A_403
  -ISIS-            3D

 10  9  0  0  0  0  0  0  0  0  1 V2000
    2.3190  -19.0050    8.0020 S   0  0  0  0  0
    3.5770  -18.6110    8.7800 O   0  0  0  0  0
    0.9590  -18.2190    8.8490 C   0  0  0  0  0
    1.9950  -20.6800    8.5190 C   0  0  0  0  0
   -0.0027  -18.5966    8.4454 H   0  0  0  0  0
    1.0113  -17.1231    8.6861 H   0  0  0  0  0
    1.0108  -18.4261    9.9376 H   0  0  0  0  0
    1.0100  -21.0089    8.1292 H   0  0  0  0  0
    1.9966  -20.7502    9.6261 H   0  0  0  0  0
    2.7823  -21.3474    8.1127 H   0  0  0  0  0
  1  2  2  0  0  0
  1  3  1  0  0  0
  1  4  1  0  0  0
  3  5  1  0  0  0
  3  6  1  0  0  0
  3  7  1  0  0  0
  4  8  1  0  0  0
  4  9  1  0  0  0
  4 10  1  0  0  0
M  END
$$$$
