CYV_2_A_302
  -ISIS-            3D

 99 99  0  0  0  0  0  0  0  0  1 V2000
  -32.1510  -32.9900   30.3070 O   0  0  0  0  0
  -32.8170  -32.9880   31.3360 C   0  0  0  0  0
  -33.8000  -31.9160   31.5350 O   0  0  0  0  0
  -35.1340  -31.9020   30.9760 C   0  0  0  0  0
  -35.8890  -30.7170   31.5770 C   0  0  0  0  0
  -35.0680  -31.7160   29.4570 C   0  0  0  0  0
  -35.8940  -33.1850   31.3290 C   0  0  0  0  0
  -32.6730  -33.9100   32.2960 N   0  0  0  0  0
  -31.7330  -35.0250   32.2060 C   0  0  0  0  0
  -31.4760  -35.4860   33.6430 C   0  0  0  0  0
  -32.6670  -36.0030   34.2610 O   0  0  0  0  0
  -32.2740  -36.1640   31.3780 C   0  0  0  0  0
  -33.4430  -36.5310   31.4780 O   0  0  0  0  0
  -31.3870  -36.7150   30.5460 N   0  0  0  0  0
  -31.6920  -37.8280   29.6520 C   0  0  0  0  0
  -31.3100  -37.3400   28.2410 C   0  0  0  0  0
  -31.2070  -38.4600   27.2090 C   0  0  0  0  0
  -32.2950  -36.2860   27.7340 C   0  0  0  0  0
  -30.9500  -39.0570   30.1130 C   0  0  0  0  0
  -29.7280  -39.0630   30.1140 O   0  0  0  0  0
  -31.7440  -40.2640   30.5890 C   0  0  0  0  0
  -30.9330  -41.5680   30.6150 C   0  0  0  0  0
  -31.8380  -42.7650   30.9070 C   0  0  0  0  0
  -32.6930  -42.5740   32.1460 C   0  0  0  0  0
  -33.8050  -43.3070   32.3880 C   0  0  0  0  0
  -34.6020  -43.0590   33.6330 C   0  0  0  0  0
  -34.2950  -44.3810   31.4490 C   0  0  0  0  0
  -30.2360  -41.7690   29.2910 C   0  0  0  0  0
  -30.8170  -41.5070   28.2430 O   0  0  0  0  0
  -28.9790  -42.2300   29.3030 N   0  0  0  0  0
  -28.2660  -42.4200   28.0340 C   0  0  0  0  0
  -28.0110  -43.9070   27.8060 C   0  0  0  0  0
  -29.2600  -44.7910   27.7990 C   0  0  0  0  0
  -28.9480  -46.1180   27.1350 C   0  0  0  0  0
  -30.0300  -47.0280   26.7600 O   0  0  0  0  0
  -30.7860  -46.8370   25.5560 C   0  0  0  0  0
  -29.9100  -46.9610   24.3220 C   0  0  0  0  0
  -27.7930  -46.4520   26.8950 O   0  0  0  0  0
  -27.0050  -41.5740   28.1600 C   0  0  0  0  0
  -26.8710  -40.2770   27.2300 C   0  0  0  0  0
  -26.8560  -40.3100   25.7000 C   0  0  0  0  0
  -26.3740  -38.8660   25.3300 C   0  0  0  0  0
  -25.4790  -38.5380   26.4190 N   0  0  0  0  0
  -25.6450  -39.3830   27.3640 C   0  0  0  0  0
  -24.9050  -39.4520   28.3230 O   0  0  0  0  0
  -36.9269  -30.6385   31.1867 H   0  0  0  0  0
  -35.3829  -29.7523   31.3551 H   0  0  0  0  0
  -35.9611  -30.7949   32.6837 H   0  0  0  0  0
  -36.0796  -31.6302   29.0045 H   0  0  0  0  0
  -34.5637  -32.5713   28.9578 H   0  0  0  0  0
  -34.5049  -30.7989   29.1785 H   0  0  0  0  0
  -36.9390  -33.1666   30.9509 H   0  0  0  0  0
  -35.9456  -33.3445   32.4279 H   0  0  0  0  0
  -35.4094  -34.0849   30.8924 H   0  0  0  0  0
  -33.2800  -33.8617   33.1255 H   0  0  0  0  0
  -30.7673  -34.6640   31.7812 H   0  0  0  0  0
  -31.0793  -34.6459   34.2538 H   0  0  0  0  0
  -30.6944  -36.2776   33.6410 H   0  0  0  0  0
  -32.4256  -36.4342   35.0701 H   0  0  0  0  0
  -30.4194  -36.3644   30.5316 H   0  0  0  0  0
  -32.7818  -38.0624   29.6552 H   0  0  0  0  0
  -30.2996  -36.8625   28.2929 H   0  0  0  0  0
  -31.0178  -38.0632   26.1865 H   0  0  0  0  0
  -32.1398  -39.0650   27.1604 H   0  0  0  0  0
  -30.3667  -39.1517   27.4333 H   0  0  0  0  0
  -31.9961  -35.8871   26.7388 H   0  0  0  0  0
  -32.3597  -35.4121   28.4196 H   0  0  0  0  0
  -33.3238  -36.6971   27.6279 H   0  0  0  0  0
  -32.6301  -40.3975   29.9266 H   0  0  0  0  0
  -32.1398  -40.0293   31.6024 H   0  0  0  0  0
  -30.1700  -41.4835   31.4262 H   0  0  0  0  0
  -31.2076  -43.6744   31.0419 H   0  0  0  0  0
  -32.4892  -42.9451   30.0222 H   0  0  0  0  0
  -32.3628  -41.8286   32.8887 H   0  0  0  0  0
  -35.6491  -42.7771   33.3843 H   0  0  0  0  0
  -34.1813  -42.2406   34.2575 H   0  0  0  0  0
  -34.6415  -43.9709   34.2691 H   0  0  0  0  0
  -34.5171  -45.3170   32.0080 H   0  0  0  0  0
  -33.5697  -44.6565   30.6561 H   0  0  0  0  0
  -35.2356  -44.0653   30.9457 H   0  0  0  0  0
  -28.5157  -42.4462   30.1959 H   0  0  0  0  0
  -28.8501  -42.0380   27.1646 H   0  0  0  0  0
  -27.3054  -44.2854   28.5826 H   0  0  0  0  0
  -27.4853  -44.0033   26.8266 H   0  0  0  0  0
  -30.0790  -44.2908   27.2373 H   0  0  0  0  0
  -29.6304  -44.9604   28.8336 H   0  0  0  0  0
  -31.2825  -45.8440   25.5672 H   0  0  0  0  0
  -31.5962  -47.5948   25.5101 H   0  0  0  0  0
  -30.5084  -46.8688   23.3894 H   0  0  0  0  0
  -29.3923  -47.9442   24.2847 H   0  0  0  0  0
  -29.1289  -46.1709   24.2866 H   0  0  0  0  0
  -26.1252  -42.2160   27.9222 H   0  0  0  0  0
  -26.8484  -41.2564   29.2164 H   0  0  0  0  0
  -27.7381  -39.6315   27.5237 H   0  0  0  0  0
  -27.8551  -40.5391   25.2672 H   0  0  0  0  0
  -26.1305  -41.0742   25.3372 H   0  0  0  0  0
  -27.2368  -38.1629   25.2823 H   0  0  0  0  0
  -25.8646  -38.8606   24.3403 H   0  0  0  0  0
  -24.7796  -37.7854   26.4368 H   0  0  0  0  0
  1  2  2  0  0  0
  2  3  1  0  0  0
  2  8  1  0  0  0
  3  4  1  0  0  0
  4  5  1  0  0  0
  4  6  1  0  0  0
  4  7  1  0  0  0
  5 46  1  0  0  0
  5 47  1  0  0  0
  5 48  1  0  0  0
  6 49  1  0  0  0
  6 50  1  0  0  0
  6 51  1  0  0  0
  7 52  1  0  0  0
  7 53  1  0  0  0
  7 54  1  0  0  0
  8  9  1  0  0  0
  8 55  1  0  0  0
  9 10  1  0  0  0
  9 12  1  0  0  0
  9 56  1  0  0  0
 10 11  1  0  0  0
 10 57  1  0  0  0
 10 58  1  0  0  0
 11 59  1  0  0  0
 12 13  2  0  0  0
 12 14  1  0  0  0
 14 15  1  0  0  0
 14 60  1  0  0  0
 15 16  1  0  0  0
 15 19  1  0  0  0
 15 61  1  0  0  0
 16 17  1  0  0  0
 16 18  1  0  0  0
 16 62  1  0  0  0
 17 63  1  0  0  0
 17 64  1  0  0  0
 17 65  1  0  0  0
 18 66  1  0  0  0
 18 67  1  0  0  0
 18 68  1  0  0  0
 19 20  2  0  0  0
 19 21  1  0  0  0
 21 22  1  0  0  0
 21 69  1  0  0  0
 21 70  1  0  0  0
 22 23  1  0  0  0
 22 28  1  0  0  0
 22 71  1  0  0  0
 23 24  1  0  0  0
 23 72  1  0  0  0
 23 73  1  0  0  0
 24 25  2  0  0  0
 24 74  1  0  0  0
 25 26  1  0  0  0
 25 27  1  0  0  0
 26 75  1  0  0  0
 26 76  1  0  0  0
 26 77  1  0  0  0
 27 78  1  0  0  0
 27 79  1  0  0  0
 27 80  1  0  0  0
 28 29  2  0  0  0
 28 30  1  0  0  0
 30 31  1  0  0  0
 30 81  1  0  0  0
 31 32  1  0  0  0
 31 39  1  0  0  0
 31 82  1  0  0  0
 32 33  1  0  0  0
 32 83  1  0  0  0
 32 84  1  0  0  0
 33 34  1  0  0  0
 33 85  1  0  0  0
 33 86  1  0  0  0
 34 35  1  0  0  0
 34 38  2  0  0  0
 35 36  1  0  0  0
 36 37  1  0  0  0
 36 87  1  0  0  0
 36 88  1  0  0  0
 37 89  1  0  0  0
 37 90  1  0  0  0
 37 91  1  0  0  0
 39 40  1  0  0  0
 39 92  1  0  0  0
 39 93  1  0  0  0
 40 41  1  0  0  0
 40 44  1  0  0  0
 40 94  1  0  0  0
 41 42  1  0  0  0
 41 95  1  0  0  0
 41 96  1  0  0  0
 42 43  1  0  0  0
 42 97  1  0  0  0
 42 98  1  0  0  0
 43 44  1  0  0  0
 43 99  1  0  0  0
 44 45  2  0  0  0
M  END
$$$$
