DMS_1_A_404
  -ISIS-            3D

 10  9  0  0  0  0  0  0  0  0  1 V2000
    8.7960   -4.7860   27.0250 S   0  0  0  0  0
    7.5710   -5.6570   27.0400 O   0  0  0  0  0
    8.2530   -3.2050   26.4370 C   0  0  0  0  0
    9.7280   -5.3020   25.6090 C   0  0  0  0  0
    9.1298   -2.5494   26.2579 H   0  0  0  0  0
    7.6027   -2.7324   27.2013 H   0  0  0  0  0
    7.6793   -3.3192   25.4948 H   0  0  0  0  0
   10.5771   -4.6073   25.4446 H   0  0  0  0  0
    9.0837   -5.3168   24.7065 H   0  0  0  0  0
   10.1283   -6.3215   25.7843 H   0  0  0  0  0
  1  2  2  0  0  0
  1  3  1  0  0  0
  1  4  1  0  0  0
  3  5  1  0  0  0
  3  6  1  0  0  0
  3  7  1  0  0  0
  4  8  1  0  0  0
  4  9  1  0  0  0
  4 10  1  0  0  0
M  END
$$$$
