DMS_1_A_403
  -ISIS-            3D

 10  9  0  0  0  0  0  0  0  0  1 V2000
    2.4470  -18.5300    8.1360 S   0  0  0  0  0
    3.5880  -18.3820    9.1030 O   0  0  0  0  0
    0.9670  -18.1410    9.0350 C   0  0  0  0  0
    2.1850  -20.2780    7.9560 C   0  0  0  0  0
    0.0777  -18.3706    8.4129 H   0  0  0  0  0
    0.9617  -17.0596    9.2821 H   0  0  0  0  0
    0.9213  -18.7266    9.9757 H   0  0  0  0  0
    1.2673  -20.4612    7.3603 H   0  0  0  0  0
    2.0818  -20.7576    8.9507 H   0  0  0  0  0
    3.0508  -20.7259    7.4268 H   0  0  0  0  0
  1  2  2  0  0  0
  1  3  1  0  0  0
  1  4  1  0  0  0
  3  5  1  0  0  0
  3  6  1  0  0  0
  3  7  1  0  0  0
  4  8  1  0  0  0
  4  9  1  0  0  0
  4 10  1  0  0  0
M  END
$$$$
