DMS_1_A_402
  -ISIS-            3D

 10  9  0  0  0  0  0  0  0  0  1 V2000
    5.8450   -0.9250   -6.4810 S   0  0  0  0  0
    6.4900   -0.4020   -7.7340 O   0  0  0  0  0
    7.1240   -1.0050   -5.2520 C   0  0  0  0  0
    5.5990   -2.6610   -6.7300 C   0  0  0  0  0
    6.7392   -1.5085   -4.3415 H   0  0  0  0  0
    7.4418    0.0238   -4.9857 H   0  0  0  0  0
    7.9988   -1.5643   -5.6418 H   0  0  0  0  0
    5.2465   -3.1298   -5.7884 H   0  0  0  0  0
    6.5451   -3.1429   -7.0506 H   0  0  0  0  0
    4.8311   -2.8142   -7.5157 H   0  0  0  0  0
  1  2  2  0  0  0
  1  3  1  0  0  0
  1  4  1  0  0  0
  3  5  1  0  0  0
  3  6  1  0  0  0
  3  7  1  0  0  0
  4  8  1  0  0  0
  4  9  1  0  0  0
  4 10  1  0  0  0
M  END
$$$$
