DMS_1_B_606
  -ISIS-            3D

 10  9  0  0  0  0  0  0  0  0  1 V2000
   48.0410  -39.6480  -17.5570 S   0  0  0  0  0
   47.7880  -39.5490  -16.1110 O   0  0  0  0  0
   47.4790  -38.3690  -18.6170 C   0  0  0  0  0
   48.9030  -41.0230  -18.1970 C   0  0  0  0  0
   47.7509  -38.6040  -19.6660 H   0  0  0  0  0
   47.9505  -37.4090  -18.3237 H   0  0  0  0  0
   46.3767  -38.2774  -18.5371 H   0  0  0  0  0
   48.9980  -40.9286  -19.2977 H   0  0  0  0  0
   48.3498  -41.9539  -17.9573 H   0  0  0  0  0
   49.9152  -41.0707  -17.7464 H   0  0  0  0  0
  1  2  2  0  0  0
  1  3  1  0  0  0
  1  4  1  0  0  0
  3  5  1  0  0  0
  3  6  1  0  0  0
  3  7  1  0  0  0
  4  8  1  0  0  0
  4  9  1  0  0  0
  4 10  1  0  0  0
M  END
$$$$
