FMT_1_A_511
  -ISIS-            3D

  4  3  0  0  0  0  0  0  0  0  1 V2000
   44.9890   28.2930   46.5910 C   0  0  0  0  0
   44.5200   28.5170   45.4800 O   0  0  0  0  0
   46.2740   28.0490   46.9090 O   0  0  0  0  0
   44.2452   28.2894   47.4749 H   0  0  0  0  0
  1  2  2  0  0  0
  1  3  1  0  0  0
  1  4  1  0  0  0
M  END
$$$$
