DMS_1_A_403
  -ISIS-            3D

 10  9  0  0  0  0  0  0  0  0  1 V2000
    2.5450  -18.7020    7.9810 S   0  0  0  0  0
    3.8300  -18.8020    8.8790 O   0  0  0  0  0
    1.2510  -18.1100    9.0500 C   0  0  0  0  0
    1.9510  -20.3470    7.8770 C   0  0  0  0  0
    0.2718  -18.1794    8.5335 H   0  0  0  0  0
    1.4458  -17.0476    9.3027 H   0  0  0  0  0
    1.2192  -18.7015    9.9880 H   0  0  0  0  0
    0.9504  -20.3609    7.3985 H   0  0  0  0  0
    1.8841  -20.8051    8.8851 H   0  0  0  0  0
    2.6469  -20.9491    7.2576 H   0  0  0  0  0
  1  2  2  0  0  0
  1  3  1  0  0  0
  1  4  1  0  0  0
  3  5  1  0  0  0
  3  6  1  0  0  0
  3  7  1  0  0  0
  4  8  1  0  0  0
  4  9  1  0  0  0
  4 10  1  0  0  0
M  END
$$$$
