DMS_2_A_404
  -ISIS-            3D

 10  9  0  0  0  0  0  0  0  0  1 V2000
   -6.2210   -0.8810    6.3260 S   0  0  0  0  0
   -7.2370   -0.3860    7.3120 O   0  0  0  0  0
   -5.8170   -2.6220    6.6320 C   0  0  0  0  0
   -6.9640   -0.9920    4.6480 C   0  0  0  0  0
   -5.0969   -2.9755    5.8661 H   0  0  0  0  0
   -6.7405   -3.2349    6.5867 H   0  0  0  0  0
   -5.3592   -2.7194    7.6376 H   0  0  0  0  0
   -6.2121   -1.3926    3.9377 H   0  0  0  0  0
   -7.2763    0.0209    4.3213 H   0  0  0  0  0
   -7.8481   -1.6614    4.6753 H   0  0  0  0  0
  1  2  2  0  0  0
  1  3  1  0  0  0
  1  4  1  0  0  0
  3  5  1  0  0  0
  3  6  1  0  0  0
  3  7  1  0  0  0
  4  8  1  0  0  0
  4  9  1  0  0  0
  4 10  1  0  0  0
M  END
$$$$
