DMS_2_A_401
  -ISIS-            3D

 10  9  0  0  0  0  0  0  0  0  1 V2000
   -7.0410  -28.3420  -21.3440 S   0  0  0  0  0
   -7.9800  -27.4770  -22.1150 O   0  0  0  0  0
   -5.7430  -29.0020  -22.4330 C   0  0  0  0  0
   -6.0710  -27.3960  -20.1370 C   0  0  0  0  0
   -5.0540  -29.6400  -21.8427 H   0  0  0  0  0
   -5.1767  -28.1647  -22.8898 H   0  0  0  0  0
   -6.2116  -29.6106  -23.2332 H   0  0  0  0  0
   -5.3809  -28.0785  -19.6002 H   0  0  0  0  0
   -6.7582  -26.9210  -19.4074 H   0  0  0  0  0
   -5.4874  -26.6105  -20.6593 H   0  0  0  0  0
  1  2  2  0  0  0
  1  3  1  0  0  0
  1  4  1  0  0  0
  3  5  1  0  0  0
  3  6  1  0  0  0
  3  7  1  0  0  0
  4  8  1  0  0  0
  4  9  1  0  0  0
  4 10  1  0  0  0
M  END
$$$$
