4MB_1_A_201
  -ISIS-            3D

 22 22  0  0  0  0  0  0  0  0  1 V2000
  -47.4700  -29.4350    5.7370 C   0  0  0  0  0
  -46.8860  -29.4280    3.4640 C   0  0  0  0  0
  -49.6730  -28.5960    6.4490 N   0  0  0  0  0
  -48.6940  -28.8830    5.4140 C   0  0  0  0  0
  -46.5740  -29.6790    4.7570 C   0  0  0  0  0
  -45.8870  -29.8080    2.3700 C   0  0  0  0  0
  -48.1090  -28.9160    3.1230 C   0  0  0  0  0
  -50.6820  -31.2580    6.7500 C   0  0  0  0  0
  -49.0190  -28.5980    4.1030 C   0  0  0  0  0
  -46.2170  -29.6820    1.1800 O   0  0  0  0  0
  -44.8070  -30.3360    2.6210 O   0  0  0  0  0
  -51.0790  -29.5060    6.4380 S   0  0  0  0  0
  -51.8930  -29.0490    7.5350 O   0  0  0  0  0
  -51.6660  -29.3620    5.1720 O   0  0  0  0  0
  -47.2254  -29.6642    6.7875 H   0  0  0  0  0
  -49.4258  -27.8721    7.1324 H   0  0  0  0  0
  -45.5913  -30.1030    5.0244 H   0  0  0  0  0
  -48.3744  -28.7377    2.0677 H   0  0  0  0  0
  -51.5943  -31.8741    6.7667 H   0  0  0  0  0
  -50.1726  -31.3819    7.7181 H   0  0  0  0  0
  -50.0193  -31.6594    5.9678 H   0  0  0  0  0
  -49.9858  -28.1433    3.8359 H   0  0  0  0  0
  1  4  2  0  0  0
  1  5  1  0  0  0
  1 15  1  0  0  0
  2  5  2  0  0  0
  2  6  1  0  0  0
  2  7  1  0  0  0
  3  4  1  0  0  0
  3 12  1  0  0  0
  3 16  1  0  0  0
  4  9  1  0  0  0
  5 17  1  0  0  0
  6 10  2  0  0  0
  6 11  2  0  0  0
  7  9  2  0  0  0
  7 18  1  0  0  0
  8 12  1  0  0  0
  8 19  1  0  0  0
  8 20  1  0  0  0
  8 21  1  0  0  0
  9 22  1  0  0  0
 12 13  2  0  0  0
 12 14  2  0  0  0
M  END
$$$$
