DMS_1_B_404
  -ISIS-            3D

 10  9  0  0  0  0  0  0  0  0  1 V2000
   -6.9220    3.4670   12.1300 S   0  0  0  0  0
   -5.4800    3.1580   12.1280 O   0  0  0  0  0
   -7.3470    4.0290   13.7150 C   0  0  0  0  0
   -7.7090    1.8940   12.1970 C   0  0  0  0  0
   -8.4486    4.1246   13.8019 H   0  0  0  0  0
   -6.8909    5.0251   13.8883 H   0  0  0  0  0
   -6.9776    3.3276   14.4914 H   0  0  0  0  0
   -8.8030    2.0237   12.3259 H   0  0  0  0  0
   -7.3085    1.2930   13.0394 H   0  0  0  0  0
   -7.5256    1.3494   11.2481 H   0  0  0  0  0
  1  2  2  0  0  0
  1  3  1  0  0  0
  1  4  1  0  0  0
  3  5  1  0  0  0
  3  6  1  0  0  0
  3  7  1  0  0  0
  4  8  1  0  0  0
  4  9  1  0  0  0
  4 10  1  0  0  0
M  END
$$$$
