SV6_1_B_401
  -ISIS-            3D

 54 56  0  0  0  0  0  0  0  0  1 V2000
   17.9660   12.4780   -2.8780 C   0  0  0  0  0
   17.2100   12.3250   -3.8240 O   0  0  0  0  0
   15.1900   13.4170   -1.9410 C   0  0  0  0  0
   17.4890   12.5400   -1.7000 N   0  0  0  0  0
   15.3510   14.5840   -1.5590 O   0  0  0  0  0
   16.0710   12.3150   -1.3570 C   0  0  0  0  0
   16.1160   12.2300    0.1810 C   0  0  0  0  0
   17.4710   12.7040    0.6760 C   0  0  0  0  0
   15.9580   10.8050    0.7040 C   0  0  0  0  0
   17.3370   10.3180    1.1260 C   0  0  0  0  0
   18.3230   12.9460   -0.5610 C   0  0  0  0  0
   18.0530   11.5940    1.5450 C   0  0  0  0  0
   11.1300   16.3510   -3.4050 N   0  0  0  0  0
   14.3370   13.0940   -2.8440 N   0  0  0  0  0
   13.4660   14.0630   -3.5600 C   0  0  0  0  0
   12.0860   14.1540   -2.8680 C   0  0  0  0  0
   13.4540   13.6140   -5.0620 C   0  0  0  0  0
   13.4540   12.0840   -5.3030 C   0  0  0  0  0
   13.1510   11.6750   -6.7600 C   0  0  0  0  0
   11.1710   15.1100   -3.6180 C   0  0  0  0  0
   11.9170   17.1620   -2.5020 C   0  0  0  0  0
   11.5020   18.6140   -2.7590 C   0  0  0  0  0
   12.8570   18.1070   -3.2390 C   0  0  0  0  0
   12.2530   14.5880   -1.4880 O   0  0  0  0  0
   10.4200   14.7010   -4.4560 O   0  0  0  0  0
   19.0653   12.6071   -3.0226 H   0  0  0  0  0
   15.7365   11.3328   -1.7643 H   0  0  0  0  0
   15.3022   12.8641    0.6076 H   0  0  0  0  0
   17.3773   13.6486    1.2629 H   0  0  0  0  0
   15.4827   10.1145   -0.0265 H   0  0  0  0  0
   15.2935   10.8201    1.6000 H   0  0  0  0  0
   17.8598    9.8570    0.2562 H   0  0  0  0  0
   17.2943    9.5629    1.9422 H   0  0  0  0  0
   18.5857   14.0271   -0.6284 H   0  0  0  0  0
   19.2811   12.3814   -0.5268 H   0  0  0  0  0
   17.8164   11.8070    2.6140 H   0  0  0  0  0
   19.1589   11.5031    1.4744 H   0  0  0  0  0
   10.4178   16.8194   -3.9847 H   0  0  0  0  0
   14.2576   12.0966   -3.0728 H   0  0  0  0  0
   13.9181   15.0833   -3.5323 H   0  0  0  0  0
   11.6227   13.1413   -2.8730 H   0  0  0  0  0
   14.3614   14.0333   -5.5577 H   0  0  0  0  0
   12.5888   14.0767   -5.5849 H   0  0  0  0  0
   12.6912   11.6053   -4.6455 H   0  0  0  0  0
   14.4465   11.6536   -5.0350 H   0  0  0  0  0
   13.1674   10.5687   -6.8833 H   0  0  0  0  0
   13.8995   12.0994   -7.4660 H   0  0  0  0  0
   12.1468   12.0298   -7.0832 H   0  0  0  0  0
   12.1266   16.9066   -1.4688 H   0  0  0  0  0
   11.5280   19.2684   -1.8918 H   0  0  0  0  0
   10.7805   18.8210   -3.5438 H   0  0  0  0  0
   12.9530   17.9475   -4.3095 H   0  0  0  0  0
   13.7175   18.4471   -2.6696 H   0  0  0  0  0
   11.3994   14.6245   -1.0759 H   0  0  0  0  0
  1  2  2  0  0  0
  1  4  1  0  0  0
  1 26  1  0  0  0
  3  5  2  0  0  0
  3  6  1  0  0  0
  3 14  1  0  0  0
  4  6  1  0  0  0
  4 11  1  0  0  0
  6  7  1  0  0  0
  6 27  1  0  0  0
  7  8  1  0  0  0
  7  9  1  0  0  0
  7 28  1  0  0  0
  8 11  1  0  0  0
  8 12  1  0  0  0
  8 29  1  0  0  0
  9 10  1  0  0  0
  9 30  1  0  0  0
  9 31  1  0  0  0
 10 12  1  0  0  0
 10 32  1  0  0  0
 10 33  1  0  0  0
 11 34  1  0  0  0
 11 35  1  0  0  0
 12 36  1  0  0  0
 12 37  1  0  0  0
 13 20  1  0  0  0
 13 21  1  0  0  0
 13 38  1  0  0  0
 14 15  1  0  0  0
 14 39  1  0  0  0
 15 16  1  0  0  0
 15 17  1  0  0  0
 15 40  1  0  0  0
 16 20  1  0  0  0
 16 24  1  0  0  0
 16 41  1  0  0  0
 17 18  1  0  0  0
 17 42  1  0  0  0
 17 43  1  0  0  0
 18 19  1  0  0  0
 18 44  1  0  0  0
 18 45  1  0  0  0
 19 46  1  0  0  0
 19 47  1  0  0  0
 19 48  1  0  0  0
 20 25  2  0  0  0
 21 22  1  0  0  0
 21 23  1  0  0  0
 21 49  1  0  0  0
 22 23  1  0  0  0
 22 50  1  0  0  0
 22 51  1  0  0  0
 23 52  1  0  0  0
 23 53  1  0  0  0
 24 54  1  0  0  0
M  END
$$$$
