DMS_1_A_401
  -ISIS-            3D

 10  9  0  0  0  0  0  0  0  0  1 V2000
   31.1140  -31.6170  -46.0880 S   0  0  0  0  0
   31.1690  -32.8050  -45.1840 O   0  0  0  0  0
   29.6190  -30.6540  -45.7290 C   0  0  0  0  0
   32.4010  -30.4330  -45.6050 C   0  0  0  0  0
   29.6093  -29.7378  -46.3540 H   0  0  0  0  0
   29.6014  -30.3733  -44.6560 H   0  0  0  0  0
   28.7245  -31.2664  -45.9638 H   0  0  0  0  0
   32.3213  -29.5222  -46.2329 H   0  0  0  0  0
   33.3981  -30.8950  -45.7558 H   0  0  0  0  0
   32.2794  -30.1607  -44.5365 H   0  0  0  0  0
  1  2  2  0  0  0
  1  3  1  0  0  0
  1  4  1  0  0  0
  3  5  1  0  0  0
  3  6  1  0  0  0
  3  7  1  0  0  0
  4  8  1  0  0  0
  4  9  1  0  0  0
  4 10  1  0  0  0
M  END
$$$$
