DMS_1_A_401
  -ISIS-            3D

 10  9  0  0  0  0  0  0  0  0  1 V2000
  -19.5560  -27.3340   11.6050 S   0  0  0  0  0
  -20.1480  -26.3560   12.5320 O   0  0  0  0  0
  -18.7530  -26.4200   10.3570 C   0  0  0  0  0
  -20.9020  -27.8920   10.6200 C   0  0  0  0  0
  -18.4263  -27.0958    9.5404 H   0  0  0  0  0
  -17.8570  -25.9241   10.7837 H   0  0  0  0  0
  -19.4269  -25.6421    9.9430 H   0  0  0  0  0
  -20.5281  -28.5280    9.7916 H   0  0  0  0  0
  -21.4640  -27.0328   10.2000 H   0  0  0  0  0
  -21.5893  -28.4965   11.2468 H   0  0  0  0  0
  1  2  2  0  0  0
  1  3  1  0  0  0
  1  4  1  0  0  0
  3  5  1  0  0  0
  3  6  1  0  0  0
  3  7  1  0  0  0
  4  8  1  0  0  0
  4  9  1  0  0  0
  4 10  1  0  0  0
M  END
$$$$
