DMS_2_A_408
  -ISIS-            3D

 10  9  0  0  0  0  0  0  0  0  1 V2000
   14.0390   -3.1560  -29.1730 S   0  0  0  0  0
   13.5810   -2.0730  -28.2310 O   0  0  0  0  0
   15.8110   -3.0340  -29.2390 C   0  0  0  0  0
   13.9220   -4.6680  -28.2580 C   0  0  0  0  0
   16.2266   -3.8963  -29.7998 H   0  0  0  0  0
   16.2358   -3.0198  -28.2146 H   0  0  0  0  0
   16.0946   -2.0971  -29.7608 H   0  0  0  0  0
   14.3795   -5.4955  -28.8383 H   0  0  0  0  0
   12.8538   -4.9060  -28.0774 H   0  0  0  0  0
   14.4401   -4.5711  -27.2822 H   0  0  0  0  0
  1  2  2  0  0  0
  1  3  1  0  0  0
  1  4  1  0  0  0
  3  5  1  0  0  0
  3  6  1  0  0  0
  3  7  1  0  0  0
  4  8  1  0  0  0
  4  9  1  0  0  0
  4 10  1  0  0  0
M  END
$$$$
