DMS_2_A_403
  -ISIS-            3D

 10  9  0  0  0  0  0  0  0  0  1 V2000
   -7.5360   -0.2660   -4.6570 S   0  0  0  0  0
   -8.9500   -0.0630   -5.0440 O   0  0  0  0  0
   -6.3860   -0.0660   -5.9960 C   0  0  0  0  0
   -7.3020   -1.9620   -4.2370 C   0  0  0  0  0
   -5.3559   -0.2721   -5.6398 H   0  0  0  0  0
   -6.4374    0.9764   -6.3717 H   0  0  0  0  0
   -6.6393   -0.7632   -6.8209 H   0  0  0  0  0
   -6.2487   -2.1321   -3.9335 H   0  0  0  0  0
   -7.5435   -2.6072   -5.1066 H   0  0  0  0  0
   -7.9676   -2.2289   -3.3907 H   0  0  0  0  0
  1  2  2  0  0  0
  1  3  1  0  0  0
  1  4  1  0  0  0
  3  5  1  0  0  0
  3  6  1  0  0  0
  3  7  1  0  0  0
  4  8  1  0  0  0
  4  9  1  0  0  0
  4 10  1  0  0  0
M  END
$$$$
