EDO_1_A_406
  -ISIS-            3D

 10  9  0  0  0  0  0  0  0  0  1 V2000
   -8.3630    0.5110    0.7990 C   0  0  0  0  0
   -8.3160    1.1400   -0.4920 O   0  0  0  0  0
   -8.9090   -0.8990    0.6330 C   0  0  0  0  0
   -9.6100   -1.2790    1.8310 O   0  0  0  0  0
   -9.0312    1.1158    1.4465 H   0  0  0  0  0
   -7.3601    0.5090    1.2744 H   0  0  0  0  0
   -7.5073    0.8876   -0.9178 H   0  0  0  0  0
   -8.0870   -1.6192    0.4428 H   0  0  0  0  0
   -9.6054   -0.9615   -0.2301 H   0  0  0  0  0
  -10.4778   -0.8978    1.8025 H   0  0  0  0  0
  1  2  1  0  0  0
  1  3  1  0  0  0
  1  5  1  0  0  0
  1  6  1  0  0  0
  2  7  1  0  0  0
  3  4  1  0  0  0
  3  8  1  0  0  0
  3  9  1  0  0  0
  4 10  1  0  0  0
M  END
$$$$
