TMO_1_C_401
  -ISIS-            3D

 15 14  0  0  0  0  0  0  0  0  1 V2000
  -33.2410   16.8450  -43.6390 C   0  0  0  0  0
  -33.9890   17.2000  -44.8380 N   0  0  0  0  0
  -33.5060   16.4280  -45.9800 C   0  0  0  0  0
  -35.3980   16.8910  -44.6250 C   0  0  0  0  0
  -33.8070   18.3990  -45.0680 O   0  0  0  0  0
  -33.5908   17.4247  -42.7555 H   0  0  0  0  0
  -32.1547   17.0540  -43.7621 H   0  0  0  0  0
  -33.3463   15.7647  -43.3947 H   0  0  0  0  0
  -34.0684   16.6668  -46.9101 H   0  0  0  0  0
  -33.6086   15.3342  -45.8042 H   0  0  0  0  0
  -32.4302   16.6314  -46.1810 H   0  0  0  0  0
  -36.0127   17.1341  -45.5201 H   0  0  0  0  0
  -35.8142   17.4726  -43.7722 H   0  0  0  0  0
  -35.5521   15.8122  -44.4008 H   0  0  0  0  0
  -34.4551   18.8706  -46.0998 H   0  0  0  0  0
  1  2  1  0  0  0
  1  6  1  0  0  0
  1  7  1  0  0  0
  1  8  1  0  0  0
  2  3  1  0  0  0
  2  4  1  0  0  0
  2  5  1  0  0  0
  3  9  1  0  0  0
  3 10  1  0  0  0
  3 11  1  0  0  0
  4 12  1  0  0  0
  4 13  1  0  0  0
  4 14  1  0  0  0
  5 15  1  0  0  0
M  END
$$$$
