TMO_1_A_402
  -ISIS-            3D

 15 14  0  0  0  0  0  0  0  0  1 V2000
  -41.3190   50.4080  -40.5460 C   0  0  0  0  0
  -41.6270   49.3930  -41.5260 N   0  0  0  0  0
  -43.0450   49.4690  -41.7750 C   0  0  0  0  0
  -40.8970   49.6570  -42.7360 C   0  0  0  0  0
  -41.3040   48.2910  -41.1490 O   0  0  0  0  0
  -40.2328   50.4181  -40.3027 H   0  0  0  0  0
  -41.8614   50.2305  -39.5902 H   0  0  0  0  0
  -41.5871   51.4285  -40.8996 H   0  0  0  0  0
  -43.3686   48.7416  -42.5528 H   0  0  0  0  0
  -43.3511   50.4781  -42.1305 H   0  0  0  0  0
  -43.6343   49.2464  -40.8571 H   0  0  0  0  0
  -41.1395   48.9281  -43.5418 H   0  0  0  0  0
  -39.7967   49.6115  -42.5706 H   0  0  0  0  0
  -41.1246   50.6689  -43.1393 H   0  0  0  0  0
  -41.6071   47.2986  -41.9437 H   0  0  0  0  0
  1  2  1  0  0  0
  1  6  1  0  0  0
  1  7  1  0  0  0
  1  8  1  0  0  0
  2  3  1  0  0  0
  2  4  1  0  0  0
  2  5  1  0  0  0
  3  9  1  0  0  0
  3 10  1  0  0  0
  3 11  1  0  0  0
  4 12  1  0  0  0
  4 13  1  0  0  0
  4 14  1  0  0  0
  5 15  1  0  0  0
M  END
$$$$
