K36_1_A_401
  -ISIS-            3D

 60 61  0  0  0  0  0  0  0  0  1 V2000
  -20.3210   66.2180    3.1190 C   0  0  0  0  0
  -20.5280   65.5840    1.8290 O   0  0  0  0  0
  -20.3250   64.2540    1.7650 C   0  0  0  0  0
  -19.8130   63.5900    2.6400 O   0  0  0  0  0
  -20.5020   67.7070    3.0360 C   0  0  0  0  0
  -19.7580   68.5380    3.8580 C   0  0  0  0  0
  -19.8590   69.9170    3.7520 C   0  0  0  0  0
  -20.7220   70.4810    2.8340 C   0  0  0  0  0
  -21.4820   69.6670    2.0250 C   0  0  0  0  0
  -21.3710   68.2870    2.1230 C   0  0  0  0  0
  -20.8440   63.7630    0.6320 N   0  0  0  0  0
  -20.8950   62.3260    0.3820 C   0  0  0  0  0
  -19.5550   61.8060   -0.1420 C   0  0  0  0  0
  -18.8990   62.4700   -0.9740 O   0  0  0  0  0
  -21.9940   61.9920   -0.6280 C   0  0  0  0  0
  -23.3810   62.3930   -0.1740 C   0  0  0  0  0
  -24.3840   62.2380   -1.2970 C   0  0  0  0  0
  -23.7830   61.5780    0.9980 C   0  0  0  0  0
  -19.1390   60.6480    0.3800 N   0  0  0  0  0
  -17.8910   60.0000   -0.0120 C   0  0  0  0  0
  -18.1860   58.5550   -0.5470 C   0  0  0  0  0
  -16.9990   58.1040   -1.1800 O   0  0  0  0  0
  -16.9100   59.9390    1.1590 C   0  0  0  0  0
  -16.4220   61.2790    1.6960 C   0  0  0  0  0
  -15.6000   62.0800    0.6840 C   0  0  0  0  0
  -14.5600   62.7990    1.5260 C   0  0  0  0  0
  -14.4320   61.9460    2.6830 N   0  0  0  0  0
  -15.4770   61.1470    2.8780 C   0  0  0  0  0
  -15.6430   60.4420    3.8540 O   0  0  0  0  0
  -19.2992   65.9930    3.4917 H   0  0  0  0  0
  -21.0408   65.8161    3.8634 H   0  0  0  0  0
  -19.0642   68.1081    4.6010 H   0  0  0  0  0
  -19.2496   70.5652    4.4050 H   0  0  0  0  0
  -20.8037   71.5783    2.7512 H   0  0  0  0  0
  -22.1781   70.1119    1.2933 H   0  0  0  0  0
  -21.9812   67.6515    1.4590 H   0  0  0  0  0
  -21.1942   64.4209   -0.0757 H   0  0  0  0  0
  -21.1184   61.7930    1.3349 H   0  0  0  0  0
  -21.9718   60.8998   -0.8511 H   0  0  0  0  0
  -21.7586   62.5050   -1.5899 H   0  0  0  0  0
  -23.3763   63.4696    0.1238 H   0  0  0  0  0
  -25.4057   62.5523   -0.9863 H   0  0  0  0  0
  -24.4586   61.1847   -1.6491 H   0  0  0  0  0
  -24.1147   62.8597   -2.1803 H   0  0  0  0  0
  -24.8304   61.7945    1.3069 H   0  0  0  0  0
  -23.1597   61.7740    1.8973 H   0  0  0  0  0
  -23.7322   60.4848    0.7950 H   0  0  0  0  0
  -19.7123   60.1824    1.0969 H   0  0  0  0  0
  -17.4077   60.5668   -0.8416 H   0  0  0  0  0
  -19.0270   58.5642   -1.2738 H   0  0  0  0  0
  -18.4588   57.8669    0.2799 H   0  0  0  0  0
  -16.9914   58.4137   -2.0763 H   0  0  0  0  0
  -16.0205   59.3363    0.8622 H   0  0  0  0  0
  -17.3910   59.3759    1.9927 H   0  0  0  0  0
  -17.2936   61.8911    2.0307 H   0  0  0  0  0
  -16.2216   62.7872    0.0910 H   0  0  0  0  0
  -15.0895   61.3925   -0.0294 H   0  0  0  0  0
  -14.9175   63.8145    1.8123 H   0  0  0  0  0
  -13.6015   62.9159    0.9722 H   0  0  0  0  0
  -13.6348   61.9615    3.3321 H   0  0  0  0  0
  1  2  1  0  0  0
  1  5  1  0  0  0
  1 30  1  0  0  0
  1 31  1  0  0  0
  2  3  1  0  0  0
  3  4  2  0  0  0
  3 11  1  0  0  0
  5  6  2  0  0  0
  5 10  1  0  0  0
  6  7  1  0  0  0
  6 32  1  0  0  0
  7  8  2  0  0  0
  7 33  1  0  0  0
  8  9  1  0  0  0
  8 34  1  0  0  0
  9 10  2  0  0  0
  9 35  1  0  0  0
 10 36  1  0  0  0
 11 12  1  0  0  0
 11 37  1  0  0  0
 12 13  1  0  0  0
 12 15  1  0  0  0
 12 38  1  0  0  0
 13 14  2  0  0  0
 13 19  1  0  0  0
 15 16  1  0  0  0
 15 39  1  0  0  0
 15 40  1  0  0  0
 16 17  1  0  0  0
 16 18  1  0  0  0
 16 41  1  0  0  0
 17 42  1  0  0  0
 17 43  1  0  0  0
 17 44  1  0  0  0
 18 45  1  0  0  0
 18 46  1  0  0  0
 18 47  1  0  0  0
 19 20  1  0  0  0
 19 48  1  0  0  0
 20 21  1  0  0  0
 20 23  1  0  0  0
 20 49  1  0  0  0
 21 22  1  0  0  0
 21 50  1  0  0  0
 21 51  1  0  0  0
 22 52  1  0  0  0
 23 24  1  0  0  0
 23 53  1  0  0  0
 23 54  1  0  0  0
 24 25  1  0  0  0
 24 28  1  0  0  0
 24 55  1  0  0  0
 25 26  1  0  0  0
 25 56  1  0  0  0
 25 57  1  0  0  0
 26 27  1  0  0  0
 26 58  1  0  0  0
 26 59  1  0  0  0
 27 28  1  0  0  0
 27 60  1  0  0  0
 28 29  2  0  0  0
M  END
$$$$
