ALD_1_A_401
  -ISIS-            3D

 77 77  0  0  0  0  0  0  0  0  1 V2000
  -15.4000  -22.2900   -0.6600 C   0  0  0  0  0
  -15.7510  -22.7780   -1.7200 O   0  0  0  0  0
  -16.1890  -21.2580   -0.0640 O   0  0  0  0  0
  -17.4080  -20.7850   -0.6720 C   0  0  0  0  0
  -17.0520  -19.6350   -1.5840 C   0  0  0  0  0
  -16.8410  -19.8500   -2.9440 C   0  0  0  0  0
  -16.5260  -18.7850   -3.7740 C   0  0  0  0  0
  -16.4010  -17.4990   -3.2470 C   0  0  0  0  0
  -16.6060  -17.2810   -1.8760 C   0  0  0  0  0
  -16.9390  -18.3510   -1.0520 C   0  0  0  0  0
  -14.2990  -22.6230    0.0000 N   0  0  0  0  0
  -13.4670  -23.7390   -0.4410 C   0  0  0  0  0
  -13.7650  -24.9670    0.3680 C   0  0  0  0  0
  -13.7050  -24.9340    1.6410 O   0  0  0  0  0
  -12.0550  -23.3250   -0.1640 C   0  0  0  0  0
  -11.1820  -22.8380   -1.3080 C   0  0  0  0  0
  -11.9370  -21.9600   -2.2860 C   0  0  0  0  0
   -9.9600  -22.1240   -0.7210 C   0  0  0  0  0
  -14.0510  -26.0650   -0.3030 N   0  0  0  0  0
  -14.0750  -27.3490    0.3690 C   0  0  0  0  0
  -12.7070  -27.8680    0.7510 C   0  0  0  0  0
  -11.8850  -28.0640   -0.1230 O   0  0  0  0  0
  -14.7600  -28.3750   -0.4840 C   0  0  0  0  0
  -16.1750  -27.9080   -0.8550 C   0  0  0  0  0
  -17.1020  -27.8870    0.3350 C   0  0  0  0  0
  -16.7470  -28.7920   -1.9600 C   0  0  0  0  0
  -12.4660  -28.0920    2.0650 N   0  0  0  0  0
  -11.1950  -28.6040    2.5630 C   0  0  0  0  0
  -11.4520  -30.0820    2.9260 C   0  0  0  0  0
  -10.7140  -27.8250    3.7750 C   0  0  0  0  0
  -10.4060  -26.3530    3.4660 C   0  0  0  0  0
   -9.5500  -26.1040    2.2220 C   0  0  0  0  0
   -9.7670  -25.6870    4.6900 C   0  0  0  0  0
  -10.2500  -30.6490    3.4420 O   0  0  0  0  0
  -18.1109  -20.4428    0.1151 H   0  0  0  0  0
  -17.9330  -21.5882   -1.2276 H   0  0  0  0  0
  -16.9253  -20.8644   -3.3691 H   0  0  0  0  0
  -16.3674  -18.9554   -4.8526 H   0  0  0  0  0
  -16.1417  -16.6538   -3.9072 H   0  0  0  0  0
  -16.5066  -16.2655   -1.4563 H   0  0  0  0  0
  -17.1055  -18.1753    0.0246 H   0  0  0  0  0
  -14.0781  -22.1155    0.8658 H   0  0  0  0  0
  -13.5951  -23.9618   -1.5231 H   0  0  0  0  0
  -11.5158  -24.1965    0.2799 H   0  0  0  0  0
  -12.0398  -22.5622    0.6481 H   0  0  0  0  0
  -10.8206  -23.7327   -1.8742 H   0  0  0  0  0
  -11.2581  -21.5465   -3.0651 H   0  0  0  0  0
  -12.4136  -21.0907   -1.7802 H   0  0  0  0  0
  -12.7357  -22.5067   -2.8324 H   0  0  0  0  0
   -9.2456  -21.8193   -1.5184 H   0  0  0  0  0
   -9.3964  -22.7773   -0.0175 H   0  0  0  0  0
  -10.2410  -21.2010   -0.1660 H   0  0  0  0  0
  -14.1857  -26.0192   -1.3214 H   0  0  0  0  0
  -14.6665  -27.2560    1.3101 H   0  0  0  0  0
  -14.8064  -29.3553    0.0444 H   0  0  0  0  0
  -14.1691  -28.5421   -1.4146 H   0  0  0  0  0
  -16.1351  -26.8736   -1.2724 H   0  0  0  0  0
  -18.1412  -27.6194    0.0392 H   0  0  0  0  0
  -16.7996  -27.1407    1.1015 H   0  0  0  0  0
  -17.1553  -28.8770    0.8407 H   0  0  0  0  0
  -17.7607  -28.4564   -2.2747 H   0  0  0  0  0
  -16.8378  -29.8531   -1.6364 H   0  0  0  0  0
  -16.1083  -28.7793   -2.8716 H   0  0  0  0  0
  -13.2036  -27.8743    2.7494 H   0  0  0  0  0
  -10.4071  -28.5829    1.7761 H   0  0  0  0  0
  -11.7748  -30.6490    2.0254 H   0  0  0  0  0
  -12.2584  -30.1683    3.6862 H   0  0  0  0  0
   -9.7857  -28.3009    4.1673 H   0  0  0  0  0
  -11.4690  -27.8874    4.5927 H   0  0  0  0  0
  -11.3848  -25.8397    3.2909 H   0  0  0  0  0
   -9.3060  -25.0245    2.1038 H   0  0  0  0  0
  -10.0635  -26.4093    1.2848 H   0  0  0  0  0
   -8.5839  -26.6543    2.2700 H   0  0  0  0  0
   -9.6244  -24.5938    4.5362 H   0  0  0  0  0
   -8.7681  -26.1194    4.9225 H   0  0  0  0  0
  -10.3980  -25.8043    5.5995 H   0  0  0  0  0
  -10.3900  -31.5768    3.5761 H   0  0  0  0  0
  1  2  2  0  0  0
  1  3  1  0  0  0
  1 11  1  0  0  0
  3  4  1  0  0  0
  4  5  1  0  0  0
  4 35  1  0  0  0
  4 36  1  0  0  0
  5  6  2  0  0  0
  5 10  1  0  0  0
  6  7  1  0  0  0
  6 37  1  0  0  0
  7  8  2  0  0  0
  7 38  1  0  0  0
  8  9  1  0  0  0
  8 39  1  0  0  0
  9 10  2  0  0  0
  9 40  1  0  0  0
 10 41  1  0  0  0
 11 12  1  0  0  0
 11 42  1  0  0  0
 12 13  1  0  0  0
 12 15  1  0  0  0
 12 43  1  0  0  0
 13 14  2  0  0  0
 13 19  1  0  0  0
 15 16  1  0  0  0
 15 44  1  0  0  0
 15 45  1  0  0  0
 16 17  1  0  0  0
 16 18  1  0  0  0
 16 46  1  0  0  0
 17 47  1  0  0  0
 17 48  1  0  0  0
 17 49  1  0  0  0
 18 50  1  0  0  0
 18 51  1  0  0  0
 18 52  1  0  0  0
 19 20  1  0  0  0
 19 53  1  0  0  0
 20 21  1  0  0  0
 20 23  1  0  0  0
 20 54  1  0  0  0
 21 22  2  0  0  0
 21 27  1  0  0  0
 23 24  1  0  0  0
 23 55  1  0  0  0
 23 56  1  0  0  0
 24 25  1  0  0  0
 24 26  1  0  0  0
 24 57  1  0  0  0
 25 58  1  0  0  0
 25 59  1  0  0  0
 25 60  1  0  0  0
 26 61  1  0  0  0
 26 62  1  0  0  0
 26 63  1  0  0  0
 27 28  1  0  0  0
 27 64  1  0  0  0
 28 29  1  0  0  0
 28 30  1  0  0  0
 28 65  1  0  0  0
 29 34  1  0  0  0
 29 66  1  0  0  0
 29 67  1  0  0  0
 30 31  1  0  0  0
 30 68  1  0  0  0
 30 69  1  0  0  0
 31 32  1  0  0  0
 31 33  1  0  0  0
 31 70  1  0  0  0
 32 71  1  0  0  0
 32 72  1  0  0  0
 32 73  1  0  0  0
 33 74  1  0  0  0
 33 75  1  0  0  0
 33 76  1  0  0  0
 34 77  1  0  0  0
M  END
$$$$
