IPA_1_A_405
  -ISIS-            3D

 12 11  0  0  0  0  0  0  0  0  1 V2000
   -0.1610  -31.7110    5.1010 C   0  0  0  0  0
   -1.4290  -31.6080    4.2470 C   0  0  0  0  0
   -1.8020  -30.1560    3.9180 C   0  0  0  0  0
   -1.2420  -32.2770    3.0100 O   0  0  0  0  0
    0.1078  -32.7707    5.3049 H   0  0  0  0  0
   -0.2923  -31.2116    6.0858 H   0  0  0  0  0
    0.7148  -31.2365    4.6069 H   0  0  0  0  0
   -2.2741  -32.0871    4.7905 H   0  0  0  0  0
   -2.7198  -30.1007    3.2922 H   0  0  0  0  0
   -0.9922  -29.6306    3.3660 H   0  0  0  0  0
   -2.0019  -29.5695    4.8413 H   0  0  0  0  0
   -0.4872  -31.9083    2.5712 H   0  0  0  0  0
  1  2  1  0  0  0
  1  5  1  0  0  0
  1  6  1  0  0  0
  1  7  1  0  0  0
  2  3  1  0  0  0
  2  4  1  0  0  0
  2  8  1  0  0  0
  3  9  1  0  0  0
  3 10  1  0  0  0
  3 11  1  0  0  0
  4 12  1  0  0  0
M  END
$$$$
