DMS_1_A_401
  -ISIS-            3D

 10  9  0  0  0  0  0  0  0  0  1 V2000
    6.8530  -27.8970   21.6320 S   0  0  0  0  0
    7.6180  -26.9440   22.5330 O   0  0  0  0  0
    5.5280  -28.5030   22.6620 C   0  0  0  0  0
    5.8730  -26.9070   20.5590 C   0  0  0  0  0
    4.8203  -29.1005   22.0516 H   0  0  0  0  0
    4.9869  -27.6577   23.1346 H   0  0  0  0  0
    5.9501  -29.1514   23.4569 H   0  0  0  0  0
    5.1654  -27.5478   19.9942 H   0  0  0  0  0
    6.5333  -26.3840   19.8373 H   0  0  0  0  0
    5.3042  -26.1508   21.1380 H   0  0  0  0  0
  1  2  2  0  0  0
  1  3  1  0  0  0
  1  4  1  0  0  0
  3  5  1  0  0  0
  3  6  1  0  0  0
  3  7  1  0  0  0
  4  8  1  0  0  0
  4  9  1  0  0  0
  4 10  1  0  0  0
M  END
$$$$
