DMS_2_A_401
  -ISIS-            3D

 10  9  0  0  0  0  0  0  0  0  1 V2000
   -7.2860  -28.0180  -21.6110 S   0  0  0  0  0
   -8.1480  -26.9680  -22.2340 O   0  0  0  0  0
   -5.9310  -28.3340  -22.7110 C   0  0  0  0  0
   -6.3700  -27.2150  -20.3230 C   0  0  0  0  0
   -5.2003  -29.0118  -22.2241 H   0  0  0  0  0
   -5.4282  -27.3846  -22.9874 H   0  0  0  0  0
   -6.3126  -28.8212  -23.6316 H   0  0  0  0  0
   -5.6236  -27.9167  -19.8975 H   0  0  0  0  0
   -7.0662  -26.9025  -19.5179 H   0  0  0  0  0
   -5.8507  -26.3183  -20.7189 H   0  0  0  0  0
  1  2  2  0  0  0
  1  3  1  0  0  0
  1  4  1  0  0  0
  3  5  1  0  0  0
  3  6  1  0  0  0
  3  7  1  0  0  0
  4  8  1  0  0  0
  4  9  1  0  0  0
  4 10  1  0  0  0
M  END
$$$$
