DMS_1_B_505
  -ISIS-            3D

 10  9  0  0  0  0  0  0  0  0  1 V2000
   24.8860   -8.8430  -37.6140 S   0  0  0  0  0
   23.8240   -9.2180  -38.5940 O   0  0  0  0  0
   26.1090   -7.8890  -38.5160 C   0  0  0  0  0
   25.8390  -10.3250  -37.4120 C   0  0  0  0  0
   27.0011   -7.7249  -37.8777 H   0  0  0  0  0
   25.6753   -6.9050  -38.7882 H   0  0  0  0  0
   26.4075   -8.4225  -39.4419 H   0  0  0  0  0
   26.7440  -10.1103  -36.8078 H   0  0  0  0  0
   26.1422  -10.7293  -38.3998 H   0  0  0  0  0
   25.2282  -11.0848  -36.8825 H   0  0  0  0  0
  1  2  2  0  0  0
  1  3  1  0  0  0
  1  4  1  0  0  0
  3  5  1  0  0  0
  3  6  1  0  0  0
  3  7  1  0  0  0
  4  8  1  0  0  0
  4  9  1  0  0  0
  4 10  1  0  0  0
M  END
$$$$
