DMS_1_B_501
  -ISIS-            3D

 10  9  0  0  0  0  0  0  0  0  1 V2000
   37.6710   -6.4600   -8.7940 S   0  0  0  0  0
   37.0470   -7.4390   -9.7560 O   0  0  0  0  0
   36.7590   -6.6060   -7.2770 C   0  0  0  0  0
   37.1320   -4.8450   -9.2980 C   0  0  0  0  0
   37.0840   -5.8184   -6.5666 H   0  0  0  0  0
   36.9545   -7.6000   -6.8252 H   0  0  0  0  0
   35.6717   -6.5033   -7.4701 H   0  0  0  0  0
   37.4508   -4.0921   -8.5483 H   0  0  0  0  0
   36.0277   -4.8217   -9.3983 H   0  0  0  0  0
   37.5901   -4.5938  -10.2765 H   0  0  0  0  0
  1  2  2  0  0  0
  1  3  1  0  0  0
  1  4  1  0  0  0
  3  5  1  0  0  0
  3  6  1  0  0  0
  3  7  1  0  0  0
  4  8  1  0  0  0
  4  9  1  0  0  0
  4 10  1  0  0  0
M  END
$$$$
