DMS_2_A_403
  -ISIS-            3D

 10  9  0  0  0  0  0  0  0  0  1 V2000
   -8.0550   -1.4310   -4.7010 S   0  0  0  0  0
   -8.9740   -0.4350   -4.0760 O   0  0  0  0  0
   -7.5320   -2.6520   -3.4660 C   0  0  0  0  0
   -6.4490   -0.6500   -5.0200 C   0  0  0  0  0
   -6.7930   -3.3449   -3.9177 H   0  0  0  0  0
   -8.4157   -3.2311   -3.1284 H   0  0  0  0  0
   -7.0769   -2.1369   -2.5953 H   0  0  0  0  0
   -5.7419   -1.4041   -5.4220 H   0  0  0  0  0
   -6.0438   -0.2226   -4.0799 H   0  0  0  0  0
   -6.5792    0.1612   -5.7652 H   0  0  0  0  0
  1  2  2  0  0  0
  1  3  1  0  0  0
  1  4  1  0  0  0
  3  5  1  0  0  0
  3  6  1  0  0  0
  3  7  1  0  0  0
  4  8  1  0  0  0
  4  9  1  0  0  0
  4 10  1  0  0  0
M  END
$$$$
