NEN_2_A_402
  -ISIS-            3D

 16 16  0  0  0  0  0  0  0  0  1 V2000
   19.5350   -2.1150  -13.7150 O   0  0  0  0  0
   20.4560   -3.7880  -12.3740 N   0  0  0  0  0
   18.1140   -3.6120  -12.3700 C   0  0  0  0  0
   20.7110   -5.6930  -11.0850 O   0  0  0  0  0
   19.4160   -3.0490  -12.9280 C   0  0  0  0  0
   20.0010   -4.7920  -11.5130 C   0  0  0  0  0
   18.5240   -4.5770  -11.2460 C   0  0  0  0  0
   21.8780   -3.5470  -12.6690 C   0  0  0  0  0
   22.5420   -4.6710  -13.4690 C   0  0  0  0  0
   17.1100   -3.2762  -12.6559 H   0  0  0  0  0
   17.9002   -5.1379  -10.5415 H   0  0  0  0  0
   22.4440   -3.4079  -11.7186 H   0  0  0  0  0
   22.0075   -2.5950  -13.2335 H   0  0  0  0  0
   23.6031   -4.4287  -13.7029 H   0  0  0  0  0
   22.0197   -4.8408  -14.4372 H   0  0  0  0  0
   22.5413   -5.6356  -12.9157 H   0  0  0  0  0
  1  5  2  0  0  0
  2  5  1  0  0  0
  2  6  1  0  0  0
  2  8  1  0  0  0
  3  5  1  0  0  0
  3  7  1  0  0  0
  3 10  1  0  0  0
  4  6  2  0  0  0
  6  7  1  0  0  0
  7 11  1  0  0  0
  8  9  1  0  0  0
  8 12  1  0  0  0
  8 13  1  0  0  0
  9 14  1  0  0  0
  9 15  1  0  0  0
  9 16  1  0  0  0
M  END
$$$$
