DMS_1_A_401
  -ISIS-            3D

 10  9  0  0  0  0  0  0  0  0  1 V2000
    6.9030  -28.0780   21.5250 S   0  0  0  0  0
    7.6910  -27.1570   22.3690 O   0  0  0  0  0
    5.5970  -28.7520   22.5340 C   0  0  0  0  0
    5.9400  -27.0740   20.4480 C   0  0  0  0  0
    4.9104  -29.3549   21.9052 H   0  0  0  0  0
    5.0290  -27.9345   23.0235 H   0  0  0  0  0
    6.0372  -29.4057   23.3146 H   0  0  0  0  0
    5.2423  -27.7090   19.8646 H   0  0  0  0  0
    6.6104  -26.5399   19.7439 H   0  0  0  0  0
    5.3599  -26.3285   21.0298 H   0  0  0  0  0
  1  2  2  0  0  0
  1  3  1  0  0  0
  1  4  1  0  0  0
  3  5  1  0  0  0
  3  6  1  0  0  0
  3  7  1  0  0  0
  4  8  1  0  0  0
  4  9  1  0  0  0
  4 10  1  0  0  0
M  END
$$$$
