DMS_1_A_403
  -ISIS-            3D

 10  9  0  0  0  0  0  0  0  0  1 V2000
    2.3080  -19.2080    8.2810 S   0  0  0  0  0
    3.5880  -18.8730    8.9950 O   0  0  0  0  0
    1.0270  -18.3050    9.1240 C   0  0  0  0  0
    1.8540  -20.8250    8.8620 C   0  0  0  0  0
    0.0325  -18.6267    8.7524 H   0  0  0  0  0
    1.1505  -17.2212    8.9223 H   0  0  0  0  0
    1.0871  -18.4771   10.2182 H   0  0  0  0  0
    0.8380  -21.0839    8.4998 H   0  0  0  0  0
    1.8712  -20.8581    9.9707 H   0  0  0  0  0
    2.5743  -21.5709    8.4681 H   0  0  0  0  0
  1  2  2  0  0  0
  1  3  1  0  0  0
  1  4  1  0  0  0
  3  5  1  0  0  0
  3  6  1  0  0  0
  3  7  1  0  0  0
  4  8  1  0  0  0
  4  9  1  0  0  0
  4 10  1  0  0  0
M  END
$$$$
