DMS_1_A_401
  -ISIS-            3D

 10  9  0  0  0  0  0  0  0  0  1 V2000
    6.9440  -28.0850   21.4960 S   0  0  0  0  0
    7.7950  -27.1950   22.3270 O   0  0  0  0  0
    5.7630  -28.7970   22.6070 C   0  0  0  0  0
    5.8520  -27.0160   20.6200 C   0  0  0  0  0
    4.9979  -29.3593   22.0336 H   0  0  0  0  0
    5.2673  -28.0052   23.2054 H   0  0  0  0  0
    6.2807  -29.4973   23.2940 H   0  0  0  0  0
    5.0843  -27.6144   20.0882 H   0  0  0  0  0
    6.4285  -26.4320   19.8737 H   0  0  0  0  0
    5.3523  -26.3136   21.3184 H   0  0  0  0  0
  1  2  2  0  0  0
  1  3  1  0  0  0
  1  4  1  0  0  0
  3  5  1  0  0  0
  3  6  1  0  0  0
  3  7  1  0  0  0
  4  8  1  0  0  0
  4  9  1  0  0  0
  4 10  1  0  0  0
M  END
$$$$
