DMS_2_A_402
  -ISIS-            3D

 10  9  0  0  0  0  0  0  0  0  1 V2000
   -6.1430   -1.0410    6.2890 S   0  0  0  0  0
   -7.1030   -0.7240    7.3730 O   0  0  0  0  0
   -7.0240   -0.9100    4.7390 C   0  0  0  0  0
   -5.8680   -2.7820    6.3000 C   0  0  0  0  0
   -6.3703   -1.2427    3.9068 H   0  0  0  0  0
   -7.3119    0.1477    4.5698 H   0  0  0  0  0
   -7.9394   -1.5357    4.7641 H   0  0  0  0  0
   -5.2409   -3.0700    5.4314 H   0  0  0  0  0
   -6.8337   -3.3255    6.2538 H   0  0  0  0  0
   -5.3388   -3.0652    7.2328 H   0  0  0  0  0
  1  2  2  0  0  0
  1  3  1  0  0  0
  1  4  1  0  0  0
  3  5  1  0  0  0
  3  6  1  0  0  0
  3  7  1  0  0  0
  4  8  1  0  0  0
  4  9  1  0  0  0
  4 10  1  0  0  0
M  END
$$$$
