DMS_1_B_503
  -ISIS-            3D

 10  9  0  0  0  0  0  0  0  0  1 V2000
   20.9520   -9.2440   -8.8620 S   0  0  0  0  0
   21.7780   -9.7060  -10.0310 O   0  0  0  0  0
   21.3010   -7.5080   -8.6860 C   0  0  0  0  0
   21.8340   -9.7990   -7.4180 C   0  0  0  0  0
   20.8537   -7.1279   -7.7449 H   0  0  0  0  0
   20.8576   -6.9573   -9.5407 H   0  0  0  0  0
   22.3963   -7.3324   -8.6724 H   0  0  0  0  0
   21.3755   -9.3634   -6.5068 H   0  0  0  0  0
   22.9002   -9.4980   -7.4757 H   0  0  0  0  0
   21.7738  -10.9048   -7.3552 H   0  0  0  0  0
  1  2  2  0  0  0
  1  3  1  0  0  0
  1  4  1  0  0  0
  3  5  1  0  0  0
  3  6  1  0  0  0
  3  7  1  0  0  0
  4  8  1  0  0  0
  4  9  1  0  0  0
  4 10  1  0  0  0
M  END
$$$$
