DMS_1_B_502
  -ISIS-            3D

 10  9  0  0  0  0  0  0  0  0  1 V2000
   -0.7040  -11.3720  -18.4610 S   0  0  0  0  0
   -0.9360  -12.8810  -18.4100 O   0  0  0  0  0
    0.2300  -10.9920  -19.9410 C   0  0  0  0  0
    0.5590  -11.0360  -17.2600 C   0  0  0  0  0
    0.5265   -9.9232  -19.9330 H   0  0  0  0  0
   -0.4029  -11.1842  -20.8314 H   0  0  0  0  0
    1.1366  -11.6289  -19.9957 H   0  0  0  0  0
    0.8586   -9.9697  -17.3181 H   0  0  0  0  0
    1.4443  -11.6792  -17.4419 H   0  0  0  0  0
    0.1640  -11.2427  -16.2443 H   0  0  0  0  0
  1  2  2  0  0  0
  1  3  1  0  0  0
  1  4  1  0  0  0
  3  5  1  0  0  0
  3  6  1  0  0  0
  3  7  1  0  0  0
  4  8  1  0  0  0
  4  9  1  0  0  0
  4 10  1  0  0  0
M  END
$$$$
