DMS_1_A_1003
  -ISIS-            3D

 10  9  0  0  0  0  0  0  0  0  1 V2000
    5.7980   -1.2080   -6.4440 S   0  0  0  0  0
    6.3970   -0.8310   -7.7710 O   0  0  0  0  0
    7.1000   -1.0580   -5.2440 C   0  0  0  0  0
    5.6560   -2.9760   -6.4430 C   0  0  0  0  0
    6.7576   -1.4540   -4.2660 H   0  0  0  0  0
    7.3660    0.0121   -5.1238 H   0  0  0  0  0
    7.9976   -1.6183   -5.5761 H   0  0  0  0  0
    5.3470   -3.3282   -5.4375 H   0  0  0  0  0
    6.6248   -3.4417   -6.7161 H   0  0  0  0  0
    4.8872   -3.2825   -7.1815 H   0  0  0  0  0
  1  2  2  0  0  0
  1  3  1  0  0  0
  1  4  1  0  0  0
  3  5  1  0  0  0
  3  6  1  0  0  0
  3  7  1  0  0  0
  4  8  1  0  0  0
  4  9  1  0  0  0
  4 10  1  0  0  0
M  END
$$$$
