K36_1_A_401
  -ISIS-            3D

 60 61  0  0  0  0  0  0  0  0  1 V2000
   -9.7230   31.8840    0.2090 C   0  0  0  0  0
   -9.2710   31.3440   -1.0080 O   0  0  0  0  0
   -8.8340   30.0250   -0.7500 C   0  0  0  0  0
   -9.4260   29.1630   -1.2910 O   0  0  0  0  0
  -11.2520   31.9570    0.2850 C   0  0  0  0  0
  -11.9720   32.1810   -0.8740 C   0  0  0  0  0
  -13.3620   32.2640   -0.7950 C   0  0  0  0  0
  -14.0130   32.1320    0.4280 C   0  0  0  0  0
  -13.2770   31.9050    1.5880 C   0  0  0  0  0
  -11.8950   31.8190    1.5200 C   0  0  0  0  0
   -7.7180   29.7290    0.1770 N   0  0  0  0  0
   -7.4560   28.3450    0.4990 C   0  0  0  0  0
   -8.7880   27.7750    1.0370 C   0  0  0  0  0
   -9.3810   28.4250    1.8370 O   0  0  0  0  0
   -6.4410   28.1030    1.5740 C   0  0  0  0  0
   -5.0750   27.8750    0.9270 C   0  0  0  0  0
   -4.7500   29.0210   -0.0060 C   0  0  0  0  0
   -4.0750   27.8860    2.0810 C   0  0  0  0  0
   -9.2840   26.4720    0.5480 N   0  0  0  0  0
  -10.5680   25.8590    0.9660 C   0  0  0  0  0
  -10.1720   24.4240    1.3860 C   0  0  0  0  0
  -11.0640   23.8900    2.3370 O   0  0  0  0  0
  -11.5930   25.8300   -0.1720 C   0  0  0  0  0
  -11.9750   27.2470   -0.8020 C   0  0  0  0  0
  -12.8440   27.9920    0.2350 C   0  0  0  0  0
  -13.9640   28.5970   -0.5050 C   0  0  0  0  0
  -14.0910   27.8540   -1.8160 N   0  0  0  0  0
  -12.8110   27.0620   -1.9800 C   0  0  0  0  0
  -12.5860   26.3720   -2.9140 O   0  0  0  0  0
   -9.3333   32.9197    0.3035 H   0  0  0  0  0
   -9.3431   31.3439    1.0998 H   0  0  0  0  0
  -11.4688   32.2925   -1.8487 H   0  0  0  0  0
  -13.9499   32.4391   -1.7124 H   0  0  0  0  0
  -15.1129   32.2048    0.4780 H   0  0  0  0  0
  -13.7920   31.7957    2.5576 H   0  0  0  0  0
  -11.3127   31.6416    2.4400 H   0  0  0  0  0
   -7.1750   30.4999    0.5849 H   0  0  0  0  0
   -7.1987   27.7689   -0.4204 H   0  0  0  0  0
   -6.7063   27.1931    2.1621 H   0  0  0  0  0
   -6.4272   28.9548    2.2917 H   0  0  0  0  0
   -5.0400   26.8997    0.3866 H   0  0  0  0  0
   -3.7030   28.9456   -0.3769 H   0  0  0  0  0
   -4.8371   30.0143    0.4880 H   0  0  0  0  0
   -5.3865   29.0387   -0.9169 H   0  0  0  0  0
   -3.0373   27.7083    1.7193 H   0  0  0  0  0
   -4.2920   27.0850    2.8231 H   0  0  0  0  0
   -4.0646   28.8530    2.6322 H   0  0  0  0  0
   -8.7128   25.9769   -0.1512 H   0  0  0  0  0
  -10.9906   26.4013    1.8419 H   0  0  0  0  0
   -9.1515   24.4200    1.8297 H   0  0  0  0  0
  -10.1284   23.7483    0.5062 H   0  0  0  0  0
  -10.9049   24.3041    3.1752 H   0  0  0  0  0
  -12.5175   25.3094    0.1693 H   0  0  0  0  0
  -11.1767   25.2006   -0.9932 H   0  0  0  0  0
  -11.0713   27.8230   -1.0711 H   0  0  0  0  0
  -12.2512   28.7523    0.7919 H   0  0  0  0  0
  -13.2467   27.2798    0.9909 H   0  0  0  0  0
  -13.7544   29.6692   -0.7073 H   0  0  0  0  0
  -14.9091   28.5556    0.0821 H   0  0  0  0  0
  -14.8635   27.8654   -2.4926 H   0  0  0  0  0
  1  2  1  0  0  0
  1  5  1  0  0  0
  1 30  1  0  0  0
  1 31  1  0  0  0
  2  3  1  0  0  0
  3  4  2  0  0  0
  3 11  1  0  0  0
  5  6  2  0  0  0
  5 10  1  0  0  0
  6  7  1  0  0  0
  6 32  1  0  0  0
  7  8  2  0  0  0
  7 33  1  0  0  0
  8  9  1  0  0  0
  8 34  1  0  0  0
  9 10  2  0  0  0
  9 35  1  0  0  0
 10 36  1  0  0  0
 11 12  1  0  0  0
 11 37  1  0  0  0
 12 13  1  0  0  0
 12 15  1  0  0  0
 12 38  1  0  0  0
 13 14  2  0  0  0
 13 19  1  0  0  0
 15 16  1  0  0  0
 15 39  1  0  0  0
 15 40  1  0  0  0
 16 17  1  0  0  0
 16 18  1  0  0  0
 16 41  1  0  0  0
 17 42  1  0  0  0
 17 43  1  0  0  0
 17 44  1  0  0  0
 18 45  1  0  0  0
 18 46  1  0  0  0
 18 47  1  0  0  0
 19 20  1  0  0  0
 19 48  1  0  0  0
 20 21  1  0  0  0
 20 23  1  0  0  0
 20 49  1  0  0  0
 21 22  1  0  0  0
 21 50  1  0  0  0
 21 51  1  0  0  0
 22 52  1  0  0  0
 23 24  1  0  0  0
 23 53  1  0  0  0
 23 54  1  0  0  0
 24 25  1  0  0  0
 24 28  1  0  0  0
 24 55  1  0  0  0
 25 26  1  0  0  0
 25 56  1  0  0  0
 25 57  1  0  0  0
 26 27  1  0  0  0
 26 58  1  0  0  0
 26 59  1  0  0  0
 27 28  1  0  0  0
 27 60  1  0  0  0
 28 29  2  0  0  0
M  END
$$$$
