EDO_1_A_404
  -ISIS-            3D

 10  9  0  0  0  0  0  0  0  0  1 V2000
   10.7090  -16.3060   16.9470 C   0  0  0  0  0
   11.5060  -15.7070   18.1300 O   0  0  0  0  0
   11.2070  -16.1740   15.4880 C   0  0  0  0  0
   11.8750  -17.3670   14.7700 O   0  0  0  0  0
    9.6963  -15.8517   17.0012 H   0  0  0  0  0
   10.5497  -17.3840   17.1617 H   0  0  0  0  0
   12.3484  -16.1414   18.1338 H   0  0  0  0  0
   11.9253  -15.3283   15.4490 H   0  0  0  0  0
   10.3500  -15.8503   14.8575 H   0  0  0  0  0
   11.2126  -17.7836   14.2347 H   0  0  0  0  0
  1  2  1  0  0  0
  1  3  1  0  0  0
  1  5  1  0  0  0
  1  6  1  0  0  0
  2  7  1  0  0  0
  3  4  1  0  0  0
  3  8  1  0  0  0
  3  9  1  0  0  0
  4 10  1  0  0  0
M  END
$$$$
