EDO_1_A_704
  -ISIS-            3D

 10  9  0  0  0  0  0  0  0  0  1 V2000
   -2.3700   16.5750  -47.8560 C   0  0  0  0  0
   -2.6390   17.1460  -46.5660 O   0  0  0  0  0
   -3.6920   16.0320  -48.3720 C   0  0  0  0  0
   -3.6620   15.9740  -49.7990 O   0  0  0  0  0
   -1.6130   15.7700  -47.7617 H   0  0  0  0  0
   -1.9574   17.3519  -48.5340 H   0  0  0  0  0
   -2.7663   18.0796  -46.6721 H   0  0  0  0  0
   -4.5310   16.6928  -48.0657 H   0  0  0  0  0
   -3.8921   15.0240  -47.9516 H   0  0  0  0  0
   -4.4769   15.5927  -50.0981 H   0  0  0  0  0
  1  2  1  0  0  0
  1  3  1  0  0  0
  1  5  1  0  0  0
  1  6  1  0  0  0
  2  7  1  0  0  0
  3  4  1  0  0  0
  3  8  1  0  0  0
  3  9  1  0  0  0
  4 10  1  0  0  0
M  END
$$$$
