EDO_1_B_402
  -ISIS-            3D

 10  9  0  0  0  0  0  0  0  0  1 V2000
   -3.8680  -18.0620  -13.4080 C   0  0  0  0  0
   -3.8270  -16.8580  -14.1790 O   0  0  0  0  0
   -5.2720  -18.6560  -13.4490 C   0  0  0  0  0
   -6.2230  -17.7060  -12.9490 O   0  0  0  0  0
   -3.5642  -17.8415  -12.3633 H   0  0  0  0  0
   -3.1295  -18.7798  -13.8204 H   0  0  0  0  0
   -4.6263  -16.3830  -13.9812 H   0  0  0  0  0
   -5.3204  -19.5937  -12.8556 H   0  0  0  0  0
   -5.5459  -18.9189  -14.4919 H   0  0  0  0  0
   -6.2950  -17.8179  -12.0101 H   0  0  0  0  0
  1  2  1  0  0  0
  1  3  1  0  0  0
  1  5  1  0  0  0
  1  6  1  0  0  0
  2  7  1  0  0  0
  3  4  1  0  0  0
  3  8  1  0  0  0
  3  9  1  0  0  0
  4 10  1  0  0  0
M  END
$$$$
