EDO_1_A_405
  -ISIS-            3D

 10  9  0  0  0  0  0  0  0  0  1 V2000
   25.5880   -8.4620  -37.3380 C   0  0  0  0  0
   26.1340   -9.6160  -37.9940 O   0  0  0  0  0
   25.6380   -7.2890  -38.3070 C   0  0  0  0  0
   24.5750   -7.4670  -39.2470 O   0  0  0  0  0
   26.2041   -8.2446  -36.4411 H   0  0  0  0  0
   24.5550   -8.6671  -36.9881 H   0  0  0  0  0
   25.5962   -9.7689  -38.7620 H   0  0  0  0  0
   26.6157   -7.2321  -38.8292 H   0  0  0  0  0
   25.4872   -6.3342  -37.7602 H   0  0  0  0  0
   24.5880   -6.7360  -39.8499 H   0  0  0  0  0
  1  2  1  0  0  0
  1  3  1  0  0  0
  1  5  1  0  0  0
  1  6  1  0  0  0
  2  7  1  0  0  0
  3  4  1  0  0  0
  3  8  1  0  0  0
  3  9  1  0  0  0
  4 10  1  0  0  0
M  END
$$$$
