DMS_2_A_405
  -ISIS-            3D

 10  9  0  0  0  0  0  0  0  0  1 V2000
   -8.6170   -4.5060  -25.8120 S   0  0  0  0  0
   -9.1890   -3.1390  -26.0000 O   0  0  0  0  0
   -9.9630   -5.5330  -25.3080 C   0  0  0  0  0
   -8.3890   -5.1640  -27.4330 C   0  0  0  0  0
   -9.6406   -6.5941  -25.2878 H   0  0  0  0  0
  -10.8191   -5.4208  -26.0046 H   0  0  0  0  0
  -10.2873   -5.2393  -24.2887 H   0  0  0  0  0
   -8.0996   -6.2329  -27.3689 H   0  0  0  0  0
   -7.5792   -4.6055  -27.9456 H   0  0  0  0  0
   -9.3222   -5.0696  -28.0254 H   0  0  0  0  0
  1  2  2  0  0  0
  1  3  1  0  0  0
  1  4  1  0  0  0
  3  5  1  0  0  0
  3  6  1  0  0  0
  3  7  1  0  0  0
  4  8  1  0  0  0
  4  9  1  0  0  0
  4 10  1  0  0  0
M  END
$$$$
