DMS_2_A_403
  -ISIS-            3D

 10  9  0  0  0  0  0  0  0  0  1 V2000
   -2.3150  -18.9990   -8.1080 S   0  0  0  0  0
   -3.6250  -18.7130   -8.8080 O   0  0  0  0  0
   -1.0780  -18.1070   -9.0280 C   0  0  0  0  0
   -1.8430  -20.6340   -8.6320 C   0  0  0  0  0
   -0.0665  -18.3924   -8.6731 H   0  0  0  0  0
   -1.2188  -17.0182   -8.8691 H   0  0  0  0  0
   -1.1665  -18.3279  -10.1114 H   0  0  0  0  0
   -0.8125  -20.8568   -8.2872 H   0  0  0  0  0
   -1.8894  -20.7153   -9.7373 H   0  0  0  0  0
   -2.5374  -21.3753   -8.1863 H   0  0  0  0  0
  1  2  2  0  0  0
  1  3  1  0  0  0
  1  4  1  0  0  0
  3  5  1  0  0  0
  3  6  1  0  0  0
  3  7  1  0  0  0
  4  8  1  0  0  0
  4  9  1  0  0  0
  4 10  1  0  0  0
M  END
$$$$
