3X5_1_A_401
  -ISIS-            3D

 69 73  0  0  0  0  0  0  0  0  1 V2000
  -21.0300  -44.7730    1.3920 O   0  0  0  0  0
  -20.5690  -43.6450    1.4530 C   0  0  0  0  0
  -21.3940  -42.5090    2.0100 C   0  0  0  0  0
  -20.4920  -41.5640    2.7940 C   0  0  0  0  0
  -19.8000  -40.6210    1.8400 C   0  0  0  0  0
  -18.5780  -40.0730    2.0050 N   0  0  0  0  0
  -18.3200  -39.2900    0.9340 C   0  0  0  0  0
  -19.3770  -39.3420    0.0950 N   0  0  0  0  0
  -20.3050  -40.1600    0.6350 C   0  0  0  0  0
  -22.4360  -43.0500    2.9040 N   0  0  0  0  0
  -23.3880  -41.9820    3.2500 C   0  0  0  0  0
  -24.7610  -42.5940    3.5290 C   0  0  0  0  0
  -24.8730  -42.9890    5.0000 C   0  0  0  0  0
  -24.7540  -41.7770    5.9130 C   0  0  0  0  0
  -24.9510  -42.1890    7.3660 C   0  0  0  0  0
  -24.8580  -40.9770    8.2860 C   0  0  0  0  0
  -25.8460  -39.8910    7.8750 C   0  0  0  0  0
  -25.6640  -39.4990    6.4120 C   0  0  0  0  0
  -25.7730  -40.7230    5.5120 C   0  0  0  0  0
  -25.5640  -40.3270    4.0570 C   0  0  0  0  0
  -25.7640  -41.5530    3.2900 N   0  0  0  0  0
  -26.7520  -41.7760    2.4270 C   0  0  0  0  0
  -27.1490  -42.9030    2.1820 O   0  0  0  0  0
  -27.3910  -40.6050    1.7410 C   0  0  0  0  0
  -28.2890  -39.8000    2.4320 C   0  0  0  0  0
  -28.8810  -38.7150    1.7960 C   0  0  0  0  0
  -28.5750  -38.4350    0.4690 C   0  0  0  0  0
  -27.6770  -39.2410   -0.2220 C   0  0  0  0  0
  -27.0850  -40.3250    0.4140 C   0  0  0  0  0
  -29.2080  -37.2750   -0.2110 C   0  0  0  0  0
  -29.2600  -37.2260   -1.5990 C   0  0  0  0  0
  -29.8520  -36.1410   -2.2350 C   0  0  0  0  0
  -30.3930  -35.1050   -1.4830 C   0  0  0  0  0
  -30.3410  -35.1530   -0.0950 C   0  0  0  0  0
  -29.7490  -36.2380    0.5410 C   0  0  0  0  0
  -19.5456  -43.4390    1.0523 H   0  0  0  0  0
  -21.8953  -42.0108    1.1531 H   0  0  0  0  0
  -19.7421  -42.1318    3.3891 H   0  0  0  0  0
  -21.0570  -40.9355    3.5140 H   0  0  0  0  0
  -17.4363  -38.6829    0.7038 H   0  0  0  0  0
  -19.4824  -38.7049   -1.0527 H   0  0  0  0  0
  -21.2414  -40.3146    0.0867 H   0  0  0  0  0
  -22.0226  -43.4401    3.7479 H   0  0  0  0  0
  -23.4987  -41.3068    2.3703 H   0  0  0  0  0
  -22.9920  -41.3610    4.0752 H   0  0  0  0  0
  -24.9156  -43.4841    2.8760 H   0  0  0  0  0
  -24.0882  -43.7388    5.2516 H   0  0  0  0  0
  -25.8526  -43.4948    5.1667 H   0  0  0  0  0
  -23.7297  -41.3447    5.8419 H   0  0  0  0  0
  -24.1814  -42.9398    7.6606 H   0  0  0  0  0
  -25.9425  -42.6809    7.4971 H   0  0  0  0  0
  -23.8213  -40.5677    8.2652 H   0  0  0  0  0
  -25.0537  -41.2862    9.3390 H   0  0  0  0  0
  -25.7144  -38.9951    8.5252 H   0  0  0  0  0
  -26.8882  -40.2505    8.0404 H   0  0  0  0  0
  -24.6726  -39.0080    6.2766 H   0  0  0  0  0
  -26.4353  -38.7450    6.1305 H   0  0  0  0  0
  -26.8022  -41.1461    5.6210 H   0  0  0  0  0
  -24.5636  -39.8711    3.8989 H   0  0  0  0  0
  -26.2869  -39.5303    3.7863 H   0  0  0  0  0
  -28.5465  -40.0260    3.4807 H   0  0  0  0  0
  -29.5990  -38.1098    2.3702 H   0  0  0  0  0
  -27.4011  -39.0446   -1.2692 H   0  0  0  0  0
  -26.3721  -40.9649   -0.1328 H   0  0  0  0  0
  -28.8554  -38.0335   -2.2282 H   0  0  0  0  0
  -29.8953  -36.1025   -3.3370 H   0  0  0  0  0
  -30.8636  -34.2442   -1.9880 H   0  0  0  0  0
  -30.7687  -34.3286    0.5009 H   0  0  0  0  0
  -29.7159  -36.2345    1.6413 H   0  0  0  0  0
  1  2  2  0  0  0
  2  3  1  0  0  0
  2 36  1  0  0  0
  3  4  1  0  0  0
  3 10  1  0  0  0
  3 37  1  0  0  0
  4  5  1  0  0  0
  4 38  1  0  0  0
  4 39  1  0  0  0
  5  6  2  0  0  0
  5  9  1  0  0  0
  6  7  1  0  0  0
  7  8  1  0  0  0
  7 40  1  0  0  0
  8  9  1  0  0  0
  8 41  1  0  0  0
  9 42  1  0  0  0
 10 11  1  0  0  0
 10 43  1  0  0  0
 11 12  1  0  0  0
 11 44  1  0  0  0
 11 45  1  0  0  0
 12 13  1  0  0  0
 12 21  1  0  0  0
 12 46  1  0  0  0
 13 14  1  0  0  0
 13 47  1  0  0  0
 13 48  1  0  0  0
 14 15  1  0  0  0
 14 19  1  0  0  0
 14 49  1  0  0  0
 15 16  1  0  0  0
 15 50  1  0  0  0
 15 51  1  0  0  0
 16 17  1  0  0  0
 16 52  1  0  0  0
 16 53  1  0  0  0
 17 18  1  0  0  0
 17 54  1  0  0  0
 17 55  1  0  0  0
 18 19  1  0  0  0
 18 56  1  0  0  0
 18 57  1  0  0  0
 19 20  1  0  0  0
 19 58  1  0  0  0
 20 21  1  0  0  0
 20 59  1  0  0  0
 20 60  1  0  0  0
 21 22  1  0  0  0
 22 23  2  0  0  0
 22 24  1  0  0  0
 24 25  2  0  0  0
 24 29  1  0  0  0
 25 26  1  0  0  0
 25 61  1  0  0  0
 26 27  2  0  0  0
 26 62  1  0  0  0
 27 28  1  0  0  0
 27 30  1  0  0  0
 28 29  2  0  0  0
 28 63  1  0  0  0
 29 64  1  0  0  0
 30 31  2  0  0  0
 30 35  1  0  0  0
 31 32  1  0  0  0
 31 65  1  0  0  0
 32 33  2  0  0  0
 32 66  1  0  0  0
 33 34  1  0  0  0
 33 67  1  0  0  0
 34 35  2  0  0  0
 34 68  1  0  0  0
 35 69  1  0  0  0
M  END
$$$$
