XIY_1_A_201
  -ISIS-            3D

 19 20  0  0  0  0  0  0  0  0  1 V2000
  -51.4700  -29.4160    5.0290 N   0  0  0  0  0
  -51.6910  -29.6270    6.2450 C   0  0  0  0  0
  -50.5360  -29.5300    6.9330 N   0  0  0  0  0
  -49.6100  -29.2650    6.1040 C   0  0  0  0  0
  -48.1720  -29.0200    6.2020 C   0  0  0  0  0
  -47.4570  -28.7050    5.1550 C   0  0  0  0  0
  -48.1030  -28.6270    3.8710 C   0  0  0  0  0
  -49.4400  -28.8510    3.7600 C   0  0  0  0  0
  -50.1970  -29.1520    4.8910 C   0  0  0  0  0
  -53.1070  -29.9930    6.7200 C   0  0  0  0  0
  -53.2720  -29.1600    7.8210 O   0  0  0  0  0
  -52.1516  -29.4347    4.2606 H   0  0  0  0  0
  -47.6973  -29.1006    7.1946 H   0  0  0  0  0
  -46.3746  -28.5095    5.2371 H   0  0  0  0  0
  -47.5045  -28.3801    2.9777 H   0  0  0  0  0
  -49.9330  -28.7919    2.7755 H   0  0  0  0  0
  -53.1794  -31.0623    7.0087 H   0  0  0  0  0
  -53.8800  -29.7692    5.9567 H   0  0  0  0  0
  -52.7131  -29.4508    8.5297 H   0  0  0  0  0
  1  2  2  0  0  0
  1  9  1  0  0  0
  1 12  1  0  0  0
  2  3  1  0  0  0
  2 10  1  0  0  0
  3  4  2  0  0  0
  4  5  1  0  0  0
  4  9  1  0  0  0
  5  6  2  0  0  0
  5 13  1  0  0  0
  6  7  1  0  0  0
  6 14  1  0  0  0
  7  8  1  0  0  0
  7 15  1  0  0  0
  8  9  1  0  0  0
  8 16  1  0  0  0
 10 11  1  0  0  0
 10 17  1  0  0  0
 10 18  1  0  0  0
 11 19  1  0  0  0
M  END
$$$$
