DMS_1_A_405
  -ISIS-            3D

 10  9  0  0  0  0  0  0  0  0  1 V2000
   24.9460   -7.7210   26.5290 S   0  0  0  0  0
   26.1160   -7.8930   27.4380 O   0  0  0  0  0
   24.5410   -6.0680   26.4840 C   0  0  0  0  0
   25.4250   -7.6050   24.9060 C   0  0  0  0  0
   23.7352   -5.8673   25.7483 H   0  0  0  0  0
   25.4201   -5.4293   26.2595 H   0  0  0  0  0
   24.1583   -5.7670   27.4810 H   0  0  0  0  0
   24.5688   -7.3513   24.2476 H   0  0  0  0  0
   25.8118   -8.5916   24.5774 H   0  0  0  0  0
   26.2399   -6.8658   24.7624 H   0  0  0  0  0
  1  2  2  0  0  0
  1  3  1  0  0  0
  1  4  1  0  0  0
  3  5  1  0  0  0
  3  6  1  0  0  0
  3  7  1  0  0  0
  4  8  1  0  0  0
  4  9  1  0  0  0
  4 10  1  0  0  0
M  END
$$$$
