TLD_1_A_902
  -ISIS-            3D

 15 15  0  0  0  0  0  0  0  0  1 V2000
   18.5010   -6.0130   26.1120 C   0  0  0  0  0
   17.7740   -5.4730   24.9260 C   0  0  0  0  0
   17.9250   -4.1350   24.5660 C   0  0  0  0  0
   18.8100   -3.2550   25.3750 C   0  0  0  0  0
   19.4650   -3.7650   26.4600 C   0  0  0  0  0
   19.3010   -5.2040   26.8460 C   0  0  0  0  0
   20.3530   -2.8750   27.2820 C   0  0  0  0  0
   16.7180   -6.5950   23.9980 S   0  0  0  0  0
   17.0640   -3.4260   23.1550 S   0  0  0  0  0
   18.3790   -7.0739   26.3881 H   0  0  0  0  0
   18.9278   -2.1955   25.0929 H   0  0  0  0  0
   19.8355   -5.5975   27.7267 H   0  0  0  0  0
   20.8186   -3.4210   28.1315 H   0  0  0  0  0
   19.7805   -2.0229   27.7111 H   0  0  0  0  0
   21.1794   -2.4545   26.6670 H   0  0  0  0  0
  1  2  1  0  0  0
  1  6  1  0  0  0
  1 10  1  0  0  0
  2  3  1  0  0  0
  2  8  1  0  0  0
  3  4  1  0  0  0
  3  9  1  0  0  0
  4  5  1  0  0  0
  4 11  1  0  0  0
  5  6  1  0  0  0
  5  7  1  0  0  0
  6 12  1  0  0  0
  7 13  1  0  0  0
  7 14  1  0  0  0
  7 15  1  0  0  0
M  END
$$$$
