DMS_1_A_405
  -ISIS-            3D

 10  9  0  0  0  0  0  0  0  0  1 V2000
    4.9760   19.5120    7.5330 S   0  0  0  0  0
    4.2860   18.9540    6.3380 O   0  0  0  0  0
    6.5080   18.5820    7.8130 C   0  0  0  0  0
    4.0280   19.0320    9.0030 C   0  0  0  0  0
    6.9858   18.9287    8.7520 H   0  0  0  0  0
    7.2012   18.7554    6.9647 H   0  0  0  0  0
    6.2825   17.4985    7.8880 H   0  0  0  0  0
    4.5643   19.3651    9.9150 H   0  0  0  0  0
    3.9021   17.9301    9.0269 H   0  0  0  0  0
    3.0303   19.5155    8.9689 H   0  0  0  0  0
  1  2  2  0  0  0
  1  3  1  0  0  0
  1  4  1  0  0  0
  3  5  1  0  0  0
  3  6  1  0  0  0
  3  7  1  0  0  0
  4  8  1  0  0  0
  4  9  1  0  0  0
  4 10  1  0  0  0
M  END
$$$$
