SV6_2_A_402
  -ISIS-            3D

104108  0  0  0  0  0  0  0  0  1 V2000
  -11.8680    8.3310  -26.5080 C   0  0  0  0  0
  -12.6010    7.9150  -28.6480 C   0  0  0  0  0
  -12.5390    9.2930  -28.9370 C   0  0  0  0  0
  -11.4380    7.8220  -25.1630 C   0  0  0  0  0
  -11.7820    9.7150  -26.8040 C   0  0  0  0  0
  -11.2280    8.6120  -24.2570 O   0  0  0  0  0
  -12.2550    7.4230  -27.4370 N   0  0  0  0  0
  -12.1400   10.1950  -28.0200 N   0  0  0  0  0
  -11.2490    6.4740  -24.9950 N   0  0  0  0  0
  -10.7640    5.9070  -23.7390 C   0  0  0  0  0
   -9.9380    4.7200  -24.2900 C   0  0  0  0  0
  -10.1320    4.2850  -25.4490 O   0  0  0  0  0
  -11.8990    5.3200  -22.8240 C   0  0  0  0  0
  -12.7340    4.2290  -23.5140 C   0  0  0  0  0
  -13.9510    3.7450  -22.7250 C   0  0  0  0  0
  -14.7700    4.8500  -22.0630 C   0  0  0  0  0
  -13.8740    5.8240  -21.3220 C   0  0  0  0  0
  -12.8490    6.4030  -22.2810 C   0  0  0  0  0
   -8.9850    4.1260  -23.4830 N   0  0  0  0  0
   -8.2440    2.9900  -23.9880 C   0  0  0  0  0
   -6.6960    3.3060  -23.9080 C   0  0  0  0  0
   -5.9090    2.0770  -24.3750 C   0  0  0  0  0
   -6.3430    4.4790  -24.8460 C   0  0  0  0  0
   -6.2350    3.7200  -22.5050 C   0  0  0  0  0
   -8.6360    1.7070  -23.1720 C   0  0  0  0  0
   -8.4320    1.6650  -21.9580 O   0  0  0  0  0
   -8.3210   -1.4180  -22.9910 C   0  0  0  0  0
   -9.2720    0.6110  -23.7500 N   0  0  0  0  0
   -7.7110   -1.6940  -24.0170 O   0  0  0  0  0
   -9.6370   -0.6280  -23.0520 C   0  0  0  0  0
  -10.6510   -1.3590  -23.9610 C   0  0  0  0  0
  -10.8190   -0.4460  -25.1870 C   0  0  0  0  0
  -12.0240   -1.4390  -23.3030 C   0  0  0  0  0
  -12.6950   -0.1020  -23.6290 C   0  0  0  0  0
   -9.5910    0.4700  -25.1740 C   0  0  0  0  0
  -12.1350    0.3160  -24.9910 C   0  0  0  0  0
   -5.0190   -5.3370  -22.2730 N   0  0  0  0  0
   -7.7810   -1.7480  -21.7610 N   0  0  0  0  0
   -6.4920   -2.4360  -21.7260 C   0  0  0  0  0
   -6.6700   -3.8560  -21.1010 C   0  0  0  0  0
   -5.4530   -1.6220  -20.9080 C   0  0  0  0  0
   -5.4330   -0.1180  -21.2110 C   0  0  0  0  0
   -4.0390    0.5000  -21.0720 C   0  0  0  0  0
   -5.3440   -4.6380  -21.1180 C   0  0  0  0  0
   -3.8260   -6.1030  -22.4880 C   0  0  0  0  0
   -3.3970   -6.4200  -23.9180 C   0  0  0  0  0
   -2.6100   -5.4140  -23.1100 C   0  0  0  0  0
   -7.6050   -4.5400  -21.8820 O   0  0  0  0  0
   -4.6060   -4.5850  -20.1380 O   0  0  0  0  0
  -12.9318    7.2031  -29.4221 H   0  0  0  0  0
  -12.8266    9.6613  -29.9356 H   0  0  0  0  0
  -11.4348   10.4336  -26.0446 H   0  0  0  0  0
  -11.4424    5.8570  -25.7992 H   0  0  0  0  0
  -10.1035    6.6055  -23.1774 H   0  0  0  0  0
  -11.3949    4.8501  -21.9432 H   0  0  0  0  0
  -12.0901    3.3526  -23.7522 H   0  0  0  0  0
  -13.0989    4.6227  -24.4909 H   0  0  0  0  0
  -13.5918    3.0546  -21.9254 H   0  0  0  0  0
  -14.6080    3.1309  -23.3840 H   0  0  0  0  0
  -15.5157    4.4054  -21.3640 H   0  0  0  0  0
  -15.3523    5.3957  -22.8415 H   0  0  0  0  0
  -13.3666    5.3155  -20.4702 H   0  0  0  0  0
  -14.4899    6.6439  -20.8846 H   0  0  0  0  0
  -13.3650    6.9190  -23.1226 H   0  0  0  0  0
  -12.2516    7.1814  -21.7517 H   0  0  0  0  0
   -8.8321    4.4607  -22.5236 H   0  0  0  0  0
   -8.4641    2.7999  -25.0599 H   0  0  0  0  0
   -4.8094    2.2253  -24.2903 H   0  0  0  0  0
   -6.1214    1.8341  -25.4401 H   0  0  0  0  0
   -6.1614    1.1697  -23.7928 H   0  0  0  0  0
   -5.2510    4.6938  -24.8533 H   0  0  0  0  0
   -6.8561    5.4208  -24.5495 H   0  0  0  0  0
   -6.6379    4.2689  -25.8984 H   0  0  0  0  0
   -5.1407    3.9216  -22.4797 H   0  0  0  0  0
   -6.4194    2.9323  -21.7448 H   0  0  0  0  0
   -6.7283    4.6479  -22.1433 H   0  0  0  0  0
  -10.0400   -0.4371  -22.0331 H   0  0  0  0  0
  -10.2836   -2.3722  -24.2442 H   0  0  0  0  0
  -10.8584   -1.0391  -26.1309 H   0  0  0  0  0
  -11.9766   -1.6408  -22.2104 H   0  0  0  0  0
  -12.6084   -2.2669  -23.7680 H   0  0  0  0  0
  -12.4153    0.6545  -22.8596 H   0  0  0  0  0
  -13.8052   -0.1799  -23.6354 H   0  0  0  0  0
   -8.7523   -0.0067  -25.7302 H   0  0  0  0  0
   -9.8214    1.4281  -25.6853 H   0  0  0  0  0
  -12.8530    0.0261  -25.7929 H   0  0  0  0  0
  -12.0081    1.4184  -25.0556 H   0  0  0  0  0
   -5.7485   -5.2915  -23.0016 H   0  0  0  0  0
   -8.2645   -1.4847  -20.8912 H   0  0  0  0  0
   -6.0693   -2.5660  -22.7492 H   0  0  0  0  0
   -7.0353   -3.7726  -20.0530 H   0  0  0  0  0
   -4.4417   -2.0468  -21.1045 H   0  0  0  0  0
   -5.6420   -1.7578  -19.8179 H   0  0  0  0  0
   -6.1574    0.4149  -20.5533 H   0  0  0  0  0
   -5.7750    0.0353  -22.2554 H   0  0  0  0  0
   -4.0557    1.5919  -21.2868 H   0  0  0  0  0
   -3.3106    0.0387  -21.7759 H   0  0  0  0  0
   -3.6373    0.3733  -20.0418 H   0  0  0  0  0
   -3.5928   -6.8802  -21.7601 H   0  0  0  0  0
   -4.0208   -6.0068  -24.7058 H   0  0  0  0  0
   -2.9218   -7.3864  -24.0629 H   0  0  0  0  0
   -1.6431   -5.7504  -22.7456 H   0  0  0  0  0
   -2.7495   -4.3722  -23.3858 H   0  0  0  0  0
   -8.4509   -4.1212  -21.8139 H   0  0  0  0  0
  1  4  1  0  0  0
  1  5  2  0  0  0
  1  7  1  0  0  0
  2  3  1  0  0  0
  2  7  2  0  0  0
  2 50  1  0  0  0
  3  8  2  0  0  0
  3 51  1  0  0  0
  4  6  2  0  0  0
  4  9  1  0  0  0
  5  8  1  0  0  0
  5 52  1  0  0  0
  9 10  1  0  0  0
  9 53  1  0  0  0
 10 11  1  0  0  0
 10 13  1  0  0  0
 10 54  1  0  0  0
 11 12  2  0  0  0
 11 19  1  0  0  0
 13 14  1  0  0  0
 13 18  1  0  0  0
 13 55  1  0  0  0
 14 15  1  0  0  0
 14 56  1  0  0  0
 14 57  1  0  0  0
 15 16  1  0  0  0
 15 58  1  0  0  0
 15 59  1  0  0  0
 16 17  1  0  0  0
 16 60  1  0  0  0
 16 61  1  0  0  0
 17 18  1  0  0  0
 17 62  1  0  0  0
 17 63  1  0  0  0
 18 64  1  0  0  0
 18 65  1  0  0  0
 19 20  1  0  0  0
 19 66  1  0  0  0
 20 21  1  0  0  0
 20 25  1  0  0  0
 20 67  1  0  0  0
 21 22  1  0  0  0
 21 23  1  0  0  0
 21 24  1  0  0  0
 22 68  1  0  0  0
 22 69  1  0  0  0
 22 70  1  0  0  0
 23 71  1  0  0  0
 23 72  1  0  0  0
 23 73  1  0  0  0
 24 74  1  0  0  0
 24 75  1  0  0  0
 24 76  1  0  0  0
 25 26  2  0  0  0
 25 28  1  0  0  0
 27 29  2  0  0  0
 27 30  1  0  0  0
 27 38  1  0  0  0
 28 30  1  0  0  0
 28 35  1  0  0  0
 30 31  1  0  0  0
 30 77  1  0  0  0
 31 32  1  0  0  0
 31 33  1  0  0  0
 31 78  1  0  0  0
 32 35  1  0  0  0
 32 36  1  0  0  0
 32 79  1  0  0  0
 33 34  1  0  0  0
 33 80  1  0  0  0
 33 81  1  0  0  0
 34 36  1  0  0  0
 34 82  1  0  0  0
 34 83  1  0  0  0
 35 84  1  0  0  0
 35 85  1  0  0  0
 36 86  1  0  0  0
 36 87  1  0  0  0
 37 44  1  0  0  0
 37 45  1  0  0  0
 37 88  1  0  0  0
 38 39  1  0  0  0
 38 89  1  0  0  0
 39 40  1  0  0  0
 39 41  1  0  0  0
 39 90  1  0  0  0
 40 44  1  0  0  0
 40 48  1  0  0  0
 40 91  1  0  0  0
 41 42  1  0  0  0
 41 92  1  0  0  0
 41 93  1  0  0  0
 42 43  1  0  0  0
 42 94  1  0  0  0
 42 95  1  0  0  0
 43 96  1  0  0  0
 43 97  1  0  0  0
 43 98  1  0  0  0
 44 49  2  0  0  0
 45 46  1  0  0  0
 45 47  1  0  0  0
 45 99  1  0  0  0
 46 47  1  0  0  0
 46100  1  0  0  0
 46101  1  0  0  0
 47102  1  0  0  0
 47103  1  0  0  0
 48104  1  0  0  0
M  END
$$$$
