DMS_2_A_402
  -ISIS-            3D

 10  9  0  0  0  0  0  0  0  0  1 V2000
   -6.1840   -1.0440    6.2780 S   0  0  0  0  0
   -7.0000   -0.6680    7.4490 O   0  0  0  0  0
   -5.8520   -2.8230    6.2650 C   0  0  0  0  0
   -7.2120   -0.9100    4.7690 C   0  0  0  0  0
   -5.2986   -3.0909    5.3419 H   0  0  0  0  0
   -6.8080   -3.3846    6.3027 H   0  0  0  0  0
   -5.2364   -3.0865    7.1492 H   0  0  0  0  0
   -6.6221   -1.2391    3.8893 H   0  0  0  0  0
   -7.5191    0.1467    4.6300 H   0  0  0  0  0
   -8.1149   -1.5459    4.8730 H   0  0  0  0  0
  1  2  2  0  0  0
  1  3  1  0  0  0
  1  4  1  0  0  0
  3  5  1  0  0  0
  3  6  1  0  0  0
  3  7  1  0  0  0
  4  8  1  0  0  0
  4  9  1  0  0  0
  4 10  1  0  0  0
M  END
$$$$
