DMS_1_A_404
  -ISIS-            3D

 10  9  0  0  0  0  0  0  0  0  1 V2000
    2.3790  -19.1130    8.0810 S   0  0  0  0  0
    2.2030  -20.5920    7.9170 O   0  0  0  0  0
    1.1680  -18.5020    9.2880 C   0  0  0  0  0
    3.9190  -18.8040    8.9890 C   0  0  0  0  0
    1.3424  -17.4226    9.4743 H   0  0  0  0  0
    1.2672  -19.0651   10.2386 H   0  0  0  0  0
    0.1452  -18.6424    8.8825 H   0  0  0  0  0
    4.0230  -17.7171    9.1839 H   0  0  0  0  0
    4.7786  -19.1497    8.3792 H   0  0  0  0  0
    3.9057  -19.3555    9.9514 H   0  0  0  0  0
  1  2  2  0  0  0
  1  3  1  0  0  0
  1  4  1  0  0  0
  3  5  1  0  0  0
  3  6  1  0  0  0
  3  7  1  0  0  0
  4  8  1  0  0  0
  4  9  1  0  0  0
  4 10  1  0  0  0
M  END
$$$$
