DMS_1_A_402
  -ISIS-            3D

 10  9  0  0  0  0  0  0  0  0  1 V2000
    7.4480  -28.5910   21.2190 S   0  0  0  0  0
    8.3890  -27.8460   22.0580 O   0  0  0  0  0
    6.3300  -27.4740   20.6990 C   0  0  0  0  0
    6.4460  -29.3170   22.3930 C   0  0  0  0  0
    5.4585  -27.9802   20.2354 H   0  0  0  0  0
    6.7903  -26.8195   19.9306 H   0  0  0  0  0
    5.9739  -26.8306   21.5298 H   0  0  0  0  0
    5.5671  -29.7925   21.9111 H   0  0  0  0  0
    6.0933  -28.5786   23.1425 H   0  0  0  0  0
    7.0137  -30.1083   22.9246 H   0  0  0  0  0
  1  2  2  0  0  0
  1  3  1  0  0  0
  1  4  1  0  0  0
  3  5  1  0  0  0
  3  6  1  0  0  0
  3  7  1  0  0  0
  4  8  1  0  0  0
  4  9  1  0  0  0
  4 10  1  0  0  0
M  END
$$$$
