DMS_2_A_402
  -ISIS-            3D

 10  9  0  0  0  0  0  0  0  0  1 V2000
   -6.0600   -1.3090    6.1650 S   0  0  0  0  0
   -6.5980   -0.7750    7.4560 O   0  0  0  0  0
   -7.3360   -1.0110    4.9570 C   0  0  0  0  0
   -6.1770   -3.0780    6.2100 C   0  0  0  0  0
   -7.0605   -1.4875    3.9938 H   0  0  0  0  0
   -7.4423    0.0815    4.7985 H   0  0  0  0  0
   -8.3044   -1.4212    5.3092 H   0  0  0  0  0
   -5.9211   -3.4980    5.2156 H   0  0  0  0  0
   -7.2035   -3.3902    6.4906 H   0  0  0  0  0
   -5.4620   -3.4733    6.9604 H   0  0  0  0  0
  1  2  2  0  0  0
  1  3  1  0  0  0
  1  4  1  0  0  0
  3  5  1  0  0  0
  3  6  1  0  0  0
  3  7  1  0  0  0
  4  8  1  0  0  0
  4  9  1  0  0  0
  4 10  1  0  0  0
M  END
$$$$
