DMS_2_A_403
  -ISIS-            3D

 10  9  0  0  0  0  0  0  0  0  1 V2000
   -2.4460  -18.9770   -8.1140 S   0  0  0  0  0
   -3.7380  -18.8150   -8.9150 O   0  0  0  0  0
   -1.2000  -18.0840   -9.0170 C   0  0  0  0  0
   -1.8730  -20.6110   -8.5050 C   0  0  0  0  0
   -0.1995  -18.2949   -8.5870 H   0  0  0  0  0
   -1.4010  -16.9960   -8.9382 H   0  0  0  0  0
   -1.2125  -18.3763  -10.0871 H   0  0  0  0  0
   -0.8545  -20.7620   -8.0923 H   0  0  0  0  0
   -1.8530  -20.7630   -9.6037 H   0  0  0  0  0
   -2.5565  -21.3571   -8.0504 H   0  0  0  0  0
  1  2  2  0  0  0
  1  3  1  0  0  0
  1  4  1  0  0  0
  3  5  1  0  0  0
  3  6  1  0  0  0
  3  7  1  0  0  0
  4  8  1  0  0  0
  4  9  1  0  0  0
  4 10  1  0  0  0
M  END
$$$$
