BU2_1_B_2111
  -ISIS-            3D

 16 15  0  0  0  0  0  0  0  0  1 V2000
   34.0400  -23.6960   38.1290 C   0  0  0  0  0
   34.2910  -23.8340   39.5040 O   0  0  0  0  0
   34.1320  -25.0720   37.4710 C   0  0  0  0  0
   33.9820  -24.9720   35.9520 C   0  0  0  0  0
   32.8240  -24.2450   35.6500 O   0  0  0  0  0
   35.2090  -24.2960   35.3340 C   0  0  0  0  0
   34.7960  -22.9998   37.7125 H   0  0  0  0  0
   33.0427  -23.2312   37.9732 H   0  0  0  0  0
   33.5210  -24.2051   39.9145 H   0  0  0  0  0
   33.3313  -25.7299   37.8771 H   0  0  0  0  0
   35.1003  -25.5566   37.7258 H   0  0  0  0  0
   33.8959  -26.0037   35.5382 H   0  0  0  0  0
   32.6496  -24.3216   34.7214 H   0  0  0  0  0
   35.1660  -24.3255   34.2229 H   0  0  0  0  0
   36.1531  -24.8034   35.6299 H   0  0  0  0  0
   35.3013  -23.2266   35.6187 H   0  0  0  0  0
  1  2  1  0  0  0
  1  3  1  0  0  0
  1  7  1  0  0  0
  1  8  1  0  0  0
  2  9  1  0  0  0
  3  4  1  0  0  0
  3 10  1  0  0  0
  3 11  1  0  0  0
  4  5  1  0  0  0
  4  6  1  0  0  0
  4 12  1  0  0  0
  5 13  1  0  0  0
  6 14  1  0  0  0
  6 15  1  0  0  0
  6 16  1  0  0  0
M  END
$$$$
