EDO_1_E_613
  -ISIS-            3D

 10  9  0  0  0  0  0  0  0  0  1 V2000
   75.7920   12.3170   31.1740 C   0  0  0  0  0
   75.9880   13.6980   30.9550 O   0  0  0  0  0
   74.4970   12.0170   31.8260 C   0  0  0  0  0
   73.9760   10.7420   31.5030 O   0  0  0  0  0
   76.6308   11.9094   31.7774 H   0  0  0  0  0
   75.8342   11.8029   30.1893 H   0  0  0  0  0
   76.8159   13.8170   30.5084 H   0  0  0  0  0
   73.7489   12.7784   31.5148 H   0  0  0  0  0
   74.5943   12.1108   32.9287 H   0  0  0  0  0
   73.1352   10.6440   31.9301 H   0  0  0  0  0
  1  2  1  0  0  0
  1  3  1  0  0  0
  1  5  1  0  0  0
  1  6  1  0  0  0
  2  7  1  0  0  0
  3  4  1  0  0  0
  3  8  1  0  0  0
  3  9  1  0  0  0
  4 10  1  0  0  0
M  END
$$$$
