EDO_1_E_612
  -ISIS-            3D

 10  9  0  0  0  0  0  0  0  0  1 V2000
   57.0710   17.3040   44.8290 C   0  0  0  0  0
   56.4190   16.4190   45.7090 O   0  0  0  0  0
   57.2600   18.6660   45.3780 C   0  0  0  0  0
   57.3140   19.6500   44.3650 O   0  0  0  0  0
   56.4500   17.3591   43.9098 H   0  0  0  0  0
   58.0426   16.8712   44.5088 H   0  0  0  0  0
   57.0295   16.1628   46.3882 H   0  0  0  0  0
   58.1923   18.7147   45.9781 H   0  0  0  0  0
   56.4312   18.9196   46.0738 H   0  0  0  0  0
   56.4328   19.8222   44.0609 H   0  0  0  0  0
  1  2  1  0  0  0
  1  3  1  0  0  0
  1  5  1  0  0  0
  1  6  1  0  0  0
  2  7  1  0  0  0
  3  4  1  0  0  0
  3  8  1  0  0  0
  3  9  1  0  0  0
  4 10  1  0  0  0
M  END
$$$$
