EDO_1_E_603
  -ISIS-            3D

 10  9  0  0  0  0  0  0  0  0  1 V2000
   66.7810   22.9500   21.4420 C   0  0  0  0  0
   67.2010   24.2620   21.7800 O   0  0  0  0  0
   67.1940   22.4380   20.1000 C   0  0  0  0  0
   67.5000   21.0490   20.0990 O   0  0  0  0  0
   65.6749   22.8891   21.5320 H   0  0  0  0  0
   67.1802   22.2656   22.2220 H   0  0  0  0  0
   66.8438   24.4849   22.6298 H   0  0  0  0  0
   68.0850   22.9973   19.7420 H   0  0  0  0  0
   66.3948   22.6295   19.3543 H   0  0  0  0  0
   68.3788   20.9348   20.4361 H   0  0  0  0  0
  1  2  1  0  0  0
  1  3  1  0  0  0
  1  5  1  0  0  0
  1  6  1  0  0  0
  2  7  1  0  0  0
  3  4  1  0  0  0
  3  8  1  0  0  0
  3  9  1  0  0  0
  4 10  1  0  0  0
M  END
$$$$
