DMS_2_A_1006
  -ISIS-            3D

 10  9  0  0  0  0  0  0  0  0  1 V2000
  -21.1710   14.6590   -7.7410 S   0  0  0  0  0
  -22.6330   14.7590   -7.8530 O   0  0  0  0  0
  -20.7350   13.3600   -8.8490 C   0  0  0  0  0
  -20.9100   13.7460   -6.2560 C   0  0  0  0  0
  -19.6710   13.0811   -8.7055 H   0  0  0  0  0
  -20.8715   13.7079   -9.8935 H   0  0  0  0  0
  -21.3750   12.4692   -8.6823 H   0  0  0  0  0
  -19.8421   13.4579   -6.1715 H   0  0  0  0  0
  -21.5402   12.8331   -6.2395 H   0  0  0  0  0
  -21.1753   14.3795   -5.3849 H   0  0  0  0  0
  1  2  2  0  0  0
  1  3  1  0  0  0
  1  4  1  0  0  0
  3  5  1  0  0  0
  3  6  1  0  0  0
  3  7  1  0  0  0
  4  8  1  0  0  0
  4  9  1  0  0  0
  4 10  1  0  0  0
M  END
$$$$
