EDO_1_L_301
  -ISIS-            3D

 10  9  0  0  0  0  0  0  0  0  1 V2000
   15.4930   -0.5260    7.2230 C   0  0  0  0  0
   14.4990   -0.9370    8.1700 O   0  0  0  0  0
   15.0510    0.8180    6.6590 C   0  0  0  0  0
   13.9320    0.5360    5.8040 O   0  0  0  0  0
   15.6050   -1.2832    6.4186 H   0  0  0  0  0
   16.4713   -0.4282    7.7387 H   0  0  0  0  0
   14.6311   -1.8568    8.3576 H   0  0  0  0  0
   15.8638    1.2830    6.0629 H   0  0  0  0  0
   14.7634    1.5230    7.4669 H   0  0  0  0  0
   13.4848    1.3525    5.6239 H   0  0  0  0  0
  1  2  1  0  0  0
  1  3  1  0  0  0
  1  5  1  0  0  0
  1  6  1  0  0  0
  2  7  1  0  0  0
  3  4  1  0  0  0
  3  8  1  0  0  0
  3  9  1  0  0  0
  4 10  1  0  0  0
M  END
$$$$
