DMS_1_A_1004
  -ISIS-            3D

 10  9  0  0  0  0  0  0  0  0  1 V2000
    2.4490  -18.9530    8.1320 S   0  0  0  0  0
    3.7180  -18.7990    8.8950 O   0  0  0  0  0
    1.2460  -18.0440    9.0600 C   0  0  0  0  0
    1.8940  -20.5380    8.7010 C   0  0  0  0  0
    0.2252  -18.2915    8.7035 H   0  0  0  0  0
    1.4177  -16.9580    8.9126 H   0  0  0  0  0
    1.3260  -18.2732   10.1425 H   0  0  0  0  0
    0.8533  -20.7190    8.3622 H   0  0  0  0  0
    1.9377  -20.5998    9.8079 H   0  0  0  0  0
    2.5454  -21.3278    8.2737 H   0  0  0  0  0
  1  2  2  0  0  0
  1  3  1  0  0  0
  1  4  1  0  0  0
  3  5  1  0  0  0
  3  6  1  0  0  0
  3  7  1  0  0  0
  4  8  1  0  0  0
  4  9  1  0  0  0
  4 10  1  0  0  0
M  END
$$$$
