DMS_2_A_1002
  -ISIS-            3D

 10  9  0  0  0  0  0  0  0  0  1 V2000
   -7.0220  -28.1220  -21.5220 S   0  0  0  0  0
   -7.6780  -27.1130  -22.3310 O   0  0  0  0  0
   -5.7290  -28.7650  -22.5540 C   0  0  0  0  0
   -6.0330  -27.2420  -20.3550 C   0  0  0  0  0
   -5.0811  -29.4448  -21.9637 H   0  0  0  0  0
   -5.1155  -27.9377  -22.9666 H   0  0  0  0  0
   -6.1771  -29.3363  -23.3927 H   0  0  0  0  0
   -5.3832  -27.9511  -19.8026 H   0  0  0  0  0
   -6.6927  -26.7228  -19.6300 H   0  0  0  0  0
   -5.4012  -26.4899  -20.8711 H   0  0  0  0  0
  1  2  2  0  0  0
  1  3  1  0  0  0
  1  4  1  0  0  0
  3  5  1  0  0  0
  3  6  1  0  0  0
  3  7  1  0  0  0
  4  8  1  0  0  0
  4  9  1  0  0  0
  4 10  1  0  0  0
M  END
$$$$
