EDO_1_H_401
  -ISIS-            3D

 10  9  0  0  0  0  0  0  0  0  1 V2000
   15.7580   40.3320   15.0880 C   0  0  0  0  0
   16.0260   40.6270   13.7120 O   0  0  0  0  0
   14.7680   39.1780   15.1700 C   0  0  0  0  0
   15.3250   38.0320   14.5160 O   0  0  0  0  0
   15.3410   41.2317   15.5879 H   0  0  0  0  0
   16.7046   40.0691   15.6059 H   0  0  0  0  0
   16.6418   41.3468   13.6785 H   0  0  0  0  0
   13.8038   39.4483   14.6905 H   0  0  0  0  0
   14.5513   38.9219   16.2275 H   0  0  0  0  0
   15.6343   38.3347   13.6697 H   0  0  0  0  0
  1  2  1  0  0  0
  1  3  1  0  0  0
  1  5  1  0  0  0
  1  6  1  0  0  0
  2  7  1  0  0  0
  3  4  1  0  0  0
  3  8  1  0  0  0
  3  9  1  0  0  0
  4 10  1  0  0  0
M  END
$$$$
