DMS_2_A_407
  -ISIS-            3D

 10  9  0  0  0  0  0  0  0  0  1 V2000
   -0.6090   -8.6370  -24.4940 S   0  0  0  0  0
   -0.0560   -7.4380  -23.7480 O   0  0  0  0  0
   -1.2240   -8.5030  -26.2220 C   0  0  0  0  0
    0.3840  -10.1470  -24.1870 C   0  0  0  0  0
   -1.8163   -9.4073  -26.4695 H   0  0  0  0  0
   -0.3595   -8.4206  -26.9120 H   0  0  0  0  0
   -1.8631   -7.6012  -26.3128 H   0  0  0  0  0
   -0.2062  -11.0382  -24.4829 H   0  0  0  0  0
    0.6355  -10.2087  -23.1085 H   0  0  0  0  0
    1.3160  -10.1004  -24.7864 H   0  0  0  0  0
  1  2  2  0  0  0
  1  3  1  0  0  0
  1  4  1  0  0  0
  3  5  1  0  0  0
  3  6  1  0  0  0
  3  7  1  0  0  0
  4  8  1  0  0  0
  4  9  1  0  0  0
  4 10  1  0  0  0
M  END
$$$$
