DFA_1_A_201
  -ISIS-            3D

 27 28  0  0  0  0  0  0  0  0  1 V2000
  -44.2430  -29.9940    3.4230 C   0  0  0  0  0
  -43.4210  -29.0680    3.5450 O   0  0  0  0  0
  -47.2710  -33.0390    1.7400 C   0  0  0  0  0
  -46.9370  -31.8850    2.4350 C   0  0  0  0  0
  -45.9820  -31.0050    1.9540 C   0  0  0  0  0
  -45.3270  -31.3150    0.7740 C   0  0  0  0  0
  -45.6470  -32.4730    0.0750 C   0  0  0  0  0
  -46.6110  -33.3420    0.5650 C   0  0  0  0  0
  -46.6720  -29.2640    3.7100 C   0  0  0  0  0
  -46.4860  -29.3670    5.0730 C   0  0  0  0  0
  -47.4860  -28.9400    5.9250 C   0  0  0  0  0
  -48.6600  -28.3920    5.4300 C   0  0  0  0  0
  -48.8420  -28.2740    4.0730 C   0  0  0  0  0
  -47.8500  -28.7210    3.2230 C   0  0  0  0  0
  -45.5890  -29.7340    2.7240 C   0  0  0  0  0
  -43.9480  -31.1310    3.9030 O   0  0  0  0  0
  -48.0485  -33.7170    2.1313 H   0  0  0  0  0
  -47.4566  -31.6788    3.3858 H   0  0  0  0  0
  -44.5458  -30.6456    0.3741 H   0  0  0  0  0
  -45.1262  -32.7071   -0.8693 H   0  0  0  0  0
  -46.8553  -34.2662    0.0141 H   0  0  0  0  0
  -45.5664  -29.7882    5.5105 H   0  0  0  0  0
  -47.3475  -29.0315    7.0162 H   0  0  0  0  0
  -49.4454  -28.0501    6.1256 H   0  0  0  0  0
  -49.7699  -27.8351    3.6687 H   0  0  0  0  0
  -48.0050  -28.6370    2.1333 H   0  0  0  0  0
  -45.4382  -28.9137    1.9820 H   0  0  0  0  0
  1  2  2  0  0  0
  1 15  1  0  0  0
  1 16  2  0  0  0
  3  4  2  0  0  0
  3  8  1  0  0  0
  3 17  1  0  0  0
  4  5  1  0  0  0
  4 18  1  0  0  0
  5  6  2  0  0  0
  5 15  1  0  0  0
  6  7  1  0  0  0
  6 19  1  0  0  0
  7  8  2  0  0  0
  7 20  1  0  0  0
  8 21  1  0  0  0
  9 10  2  0  0  0
  9 14  1  0  0  0
  9 15  1  0  0  0
 10 11  1  0  0  0
 10 22  1  0  0  0
 11 12  2  0  0  0
 11 23  1  0  0  0
 12 13  1  0  0  0
 12 24  1  0  0  0
 13 14  2  0  0  0
 13 25  1  0  0  0
 14 26  1  0  0  0
 15 27  1  0  0  0
M  END
$$$$
