DMS_1_A_402
  -ISIS-            3D

 10  9  0  0  0  0  0  0  0  0  1 V2000
    6.2680   -1.0390   -6.3740 S   0  0  0  0  0
    7.2120   -0.7530   -7.4730 O   0  0  0  0  0
    7.2200   -0.8440   -4.8700 C   0  0  0  0  0
    6.1080   -2.7910   -6.2930 C   0  0  0  0  0
    6.6221   -1.1840   -3.9998 H   0  0  0  0  0
    7.4726    0.2275   -4.7340 H   0  0  0  0  0
    8.1592   -1.4320   -4.9273 H   0  0  0  0  0
    5.5364   -3.0771   -5.3866 H   0  0  0  0  0
    7.1070   -3.2729   -6.2664 H   0  0  0  0  0
    5.5598   -3.1514   -7.1874 H   0  0  0  0  0
  1  2  2  0  0  0
  1  3  1  0  0  0
  1  4  1  0  0  0
  3  5  1  0  0  0
  3  6  1  0  0  0
  3  7  1  0  0  0
  4  8  1  0  0  0
  4  9  1  0  0  0
  4 10  1  0  0  0
M  END
$$$$
