DMS_1_A_1302
  -ISIS-            3D

 11 10  0  0  0  0  0  0  0  0  1 V2000
   -0.1490  -24.5860   36.2290 S   0  0  0  0  0
   -1.2630  -23.1920   36.2980 O   0  0  0  0  0
   -0.6880  -25.9230   37.3310 C   0  0  0  0  0
    1.3760  -24.1880   37.1330 C   0  0  0  0  0
   -0.7996  -22.2254   35.5554 H   0  0  0  0  0
    0.0660  -26.7350   37.3015 H   0  0  0  0  0
   -1.6644  -26.2960   36.9621 H   0  0  0  0  0
   -0.7964  -25.5220   38.3586 H   0  0  0  0  0
    2.0365  -25.0782   37.1270 H   0  0  0  0  0
    1.1148  -23.8972   38.1702 H   0  0  0  0  0
    1.8705  -23.3434   36.6127 H   0  0  0  0  0
  1  2  1  0  0  0
  1  3  1  0  0  0
  1  4  1  0  0  0
  2  5  1  0  0  0
  3  6  1  0  0  0
  3  7  1  0  0  0
  3  8  1  0  0  0
  4  9  1  0  0  0
  4 10  1  0  0  0
  4 11  1  0  0  0
M  END
$$$$
