XP1_1_B_1304
  -ISIS-            3D

 14 14  0  0  0  0  0  0  0  0  1 V2000
  -20.9390  -12.8770   37.2080 C   0  0  0  0  0
  -22.0050  -12.2300   36.5750 C   0  0  0  0  0
  -22.7660  -11.2920   37.2550 C   0  0  0  0  0
  -22.4650  -10.9790   38.5790 C   0  0  0  0  0
  -23.2790   -9.9720   39.3050 C   0  0  0  0  0
  -22.6980   -9.2270   40.0710 O   0  0  0  0  0
  -21.3910  -11.6130   39.2180 C   0  0  0  0  0
  -20.6240  -12.5620   38.5320 C   0  0  0  0  0
  -20.3443  -13.6287   36.6618 H   0  0  0  0  0
  -22.2437  -12.4734   35.5255 H   0  0  0  0  0
  -23.6060  -10.7964   36.7394 H   0  0  0  0  0
  -24.2856   -9.6840   38.9147 H   0  0  0  0  0
  -21.1437  -11.3676   40.2645 H   0  0  0  0  0
  -19.7783  -13.0601   39.0354 H   0  0  0  0  0
  1  2  2  0  0  0
  1  8  1  0  0  0
  1  9  1  0  0  0
  2  3  1  0  0  0
  2 10  1  0  0  0
  3  4  2  0  0  0
  3 11  1  0  0  0
  4  5  1  0  0  0
  4  7  1  0  0  0
  5  6  2  0  0  0
  5 12  1  0  0  0
  7  8  2  0  0  0
  7 13  1  0  0  0
  8 14  1  0  0  0
M  END
$$$$
