ADE_1_A_7116
  -ISIS-            3D

 15 16  0  0  0  0  0  0  0  0  1 V2000
  107.2400   21.9110   41.0760 N   0  0  0  0  0
  107.4410   23.2420   40.8870 C   0  0  0  0  0
  106.5930   24.0080   41.5340 N   0  0  0  0  0
  105.7740   23.1010   42.1970 C   0  0  0  0  0
  104.6710   23.2660   43.0580 C   0  0  0  0  0
  104.1800   24.4520   43.4090 N   0  0  0  0  0
  104.0820   22.1460   43.5450 N   0  0  0  0  0
  104.5750   20.9530   43.1860 C   0  0  0  0  0
  105.6030   20.6740   42.3880 N   0  0  0  0  0
  106.1700   21.8020   41.9170 C   0  0  0  0  0
  107.7752   21.1338   40.6749 H   0  0  0  0  0
  108.2127   23.7231   40.2708 H   0  0  0  0  0
  104.0551   20.0782   43.6134 H   0  0  0  0  0
  103.3703   24.4239   44.0411 H   0  0  0  0  0
  104.6423   25.2865   43.0262 H   0  0  0  0  0
  1  2  2  0  0  0
  1 10  1  0  0  0
  1 11  1  0  0  0
  2  3  1  0  0  0
  2 12  1  0  0  0
  3  4  1  0  0  0
  4  5  1  0  0  0
  4 10  2  0  0  0
  5  6  1  0  0  0
  5  7  2  0  0  0
  6 14  1  0  0  0
  6 15  1  0  0  0
  7  8  1  0  0  0
  8  9  2  0  0  0
  8 13  1  0  0  0
  9 10  1  0  0  0
M  END
$$$$
