DMS_1_A_401
  -ISIS-            3D

 10  9  0  0  0  0  0  0  0  0  1 V2000
    6.9180  -28.0610   21.4960 S   0  0  0  0  0
    7.8330  -27.1940   22.2730 O   0  0  0  0  0
    5.7260  -28.7160   22.6450 C   0  0  0  0  0
    5.8610  -26.9740   20.5940 C   0  0  0  0  0
    4.9360  -29.2656   22.0935 H   0  0  0  0  0
    5.2648  -27.8950   23.2315 H   0  0  0  0  0
    6.2330  -29.4168   23.3395 H   0  0  0  0  0
    5.0655  -27.5575   20.0870 H   0  0  0  0  0
    6.4543  -26.4365   19.8262 H   0  0  0  0  0
    5.3961  -26.2323   21.2755 H   0  0  0  0  0
  1  2  2  0  0  0
  1  3  1  0  0  0
  1  4  1  0  0  0
  3  5  1  0  0  0
  3  6  1  0  0  0
  3  7  1  0  0  0
  4  8  1  0  0  0
  4  9  1  0  0  0
  4 10  1  0  0  0
M  END
$$$$
