EDO_1_A_308
  -ISIS-            3D

 10  9  0  0  0  0  0  0  0  0  1 V2000
  -10.1900    4.7640   26.2640 C   0  0  0  0  0
   -9.0160    4.0450   25.8200 O   0  0  0  0  0
  -10.0640    6.2660   25.9900 C   0  0  0  0  0
  -10.5600    6.5810   24.7010 O   0  0  0  0  0
  -10.2953    4.5945   27.3562 H   0  0  0  0  0
  -11.0992    4.3414   25.7879 H   0  0  0  0  0
   -8.9824    4.1272   24.8755 H   0  0  0  0  0
   -9.0090    6.5975   26.0878 H   0  0  0  0  0
  -10.6544    6.8291   26.7444 H   0  0  0  0  0
  -10.4767    7.5160   24.5677 H   0  0  0  0  0
  1  2  1  0  0  0
  1  3  1  0  0  0
  1  5  1  0  0  0
  1  6  1  0  0  0
  2  7  1  0  0  0
  3  4  1  0  0  0
  3  8  1  0  0  0
  3  9  1  0  0  0
  4 10  1  0  0  0
M  END
$$$$
