DMS_1_A_505
  -ISIS-            3D

 10  9  0  0  0  0  0  0  0  0  1 V2000
    6.3200   -0.9510   -6.3150 S   0  0  0  0  0
    7.1760   -0.6910   -7.5090 O   0  0  0  0  0
    5.7890   -2.6860   -6.2060 C   0  0  0  0  0
    7.3020   -0.8040   -4.7910 C   0  0  0  0  0
    5.1848   -2.8318   -5.2874 H   0  0  0  0  0
    6.6782   -3.3486   -6.1772 H   0  0  0  0  0
    5.1725   -2.9354   -7.0937 H   0  0  0  0  0
    6.6568   -1.0112   -3.9130 H   0  0  0  0  0
    7.7052    0.2264   -4.7142 H   0  0  0  0  0
    8.1424   -1.5277   -4.8157 H   0  0  0  0  0
  1  2  2  0  0  0
  1  3  1  0  0  0
  1  4  1  0  0  0
  3  5  1  0  0  0
  3  6  1  0  0  0
  3  7  1  0  0  0
  4  8  1  0  0  0
  4  9  1  0  0  0
  4 10  1  0  0  0
M  END
$$$$
