NNA_1_A_401
  -ISIS-            3D

112115  0  0  0  0  0  0  0  0  1 V2000
  -13.9720    4.2490   44.9980 C   0  0  0  0  0
  -14.7810    3.6680   45.6560 O   0  0  0  0  0
  -13.0550    5.2780   45.5730 N   0  0  0  0  0
  -13.0860    5.6950   47.0140 C   0  0  0  0  0
  -11.9150    6.6640   47.2070 C   0  0  0  0  0
  -13.0340    4.4650   47.9650 C   0  0  0  0  0
  -10.6080    5.8630   47.1200 C   0  0  0  0  0
  -11.6440    3.9240   48.3640 C   0  0  0  0  0
  -10.5260    4.9730   48.3630 C   0  0  0  0  0
  -14.4190    6.4920   47.2100 C   0  0  0  0  0
  -14.6670    7.8920   46.0180 S   0  0  0  0  0
  -13.9740    7.3550   44.8240 O   0  0  0  0  0
  -14.0010    9.0510   46.7430 O   0  0  0  0  0
  -16.5120    8.0700   45.8360 C   0  0  0  0  0
  -17.0980    6.7680   45.1830 C   0  0  0  0  0
  -17.1380    8.2880   47.2530 C   0  0  0  0  0
  -16.7480    9.3200   44.9270 C   0  0  0  0  0
  -13.8570    3.9610   43.5420 N   0  0  0  0  0
  -14.7440    2.9510   43.0080 C   0  0  0  0  0
  -15.3140    3.3570   41.6280 C   0  0  0  0  0
  -15.9540    2.1480   40.9130 C   0  0  0  0  0
  -16.4140    4.3880   41.9490 C   0  0  0  0  0
  -14.2480    3.9550   40.6850 C   0  0  0  0  0
  -13.9540    1.6420   42.9550 C   0  0  0  0  0
  -12.9130    1.5220   42.3690 O   0  0  0  0  0
  -14.5360    0.4590   43.6770 N   0  0  0  0  0
  -15.6760    0.4230   44.3640 C   0  0  0  0  0
  -13.8000   -0.9340   43.6700 C   0  0  0  0  0
  -14.2720   -1.6110   44.7490 C   0  0  0  0  0
  -15.5490   -0.8630   45.2250 C   0  0  0  0  0
  -14.5280   -1.3960   46.2730 C   0  0  0  0  0
  -15.0440   -2.5550   47.1650 C   0  0  0  0  0
  -13.6840   -0.2740   46.9220 C   0  0  0  0  0
  -14.0900   -1.5530   42.2930 C   0  0  0  0  0
  -15.2150   -1.6790   41.9530 O   0  0  0  0  0
  -12.9830   -1.9210   41.3480 N   0  0  0  0  0
  -13.3370   -2.4500   40.0510 C   0  0  0  0  0
  -12.8850   -1.5220   38.8800 C   0  0  0  0  0
  -12.3610   -0.1130   39.3640 C   0  0  0  0  0
  -12.3740    1.0730   38.3310 C   0  0  0  0  0
  -11.0480    1.1380   37.5090 C   0  0  0  0  0
  -13.1800   -4.5410   41.0280 O   0  0  0  0  0
  -12.6810   -3.7900   40.0130 C   0  0  0  0  0
  -12.5400   -4.3570   37.7310 O   0  0  0  0  0
  -14.3690   -5.3790   38.7660 N   0  0  0  0  0
  -14.9470   -5.9440   37.5850 C   0  0  0  0  0
  -15.7410   -4.8890   36.7810 C   0  0  0  0  0
  -16.4870   -5.9710   37.5850 C   0  0  0  0  0
  -13.1590   -4.4960   38.7650 C   0  0  0  0  0
  -12.4095    5.7454   44.9213 H   0  0  0  0  0
  -11.9872    7.1748   48.1943 H   0  0  0  0  0
  -11.8995    7.4636   46.4340 H   0  0  0  0  0
  -13.6691    3.6282   47.6087 H   0  0  0  0  0
  -13.5126    4.7906   48.9196 H   0  0  0  0  0
   -9.7428    6.5662   47.1113 H   0  0  0  0  0
  -10.5394    5.2592   46.1883 H   0  0  0  0  0
  -11.3675    3.1304   47.6296 H   0  0  0  0  0
  -11.6965    3.4173   49.3553 H   0  0  0  0  0
  -10.5937    5.5967   49.2841 H   0  0  0  0  0
   -9.5350    4.4638   48.4004 H   0  0  0  0  0
  -14.4962    6.9176   48.2317 H   0  0  0  0  0
  -15.2800    5.8079   47.0876 H   0  0  0  0  0
  -18.1914    6.8682   45.0098 H   0  0  0  0  0
  -16.9574    5.8658   45.8132 H   0  0  0  0  0
  -16.6332    6.5629   44.1961 H   0  0  0  0  0
  -18.2362    8.4460   47.1836 H   0  0  0  0  0
  -16.7139    9.1809   47.7615 H   0  0  0  0  0
  -16.9819    7.4167   47.9239 H   0  0  0  0  0
  -17.8331    9.4998   44.7663 H   0  0  0  0  0
  -16.2867    9.1946   43.9231 H   0  0  0  0  0
  -16.3273   10.2465   45.3749 H   0  0  0  0  0
  -13.1495    4.4444   42.9775 H   0  0  0  0  0
  -15.6157    2.8043   43.6796 H   0  0  0  0  0
  -16.4653    2.4502   39.9718 H   0  0  0  0  0
  -16.7194    1.6491   41.5477 H   0  0  0  0  0
  -15.2041    1.3756   40.6347 H   0  0  0  0  0
  -16.9111    4.7509   41.0217 H   0  0  0  0  0
  -16.0013    5.2857   42.4589 H   0  0  0  0  0
  -17.2157    3.9728   42.5998 H   0  0  0  0  0
  -14.6586    4.1265   39.6650 H   0  0  0  0  0
  -13.3662    3.2898   40.5697 H   0  0  0  0  0
  -13.8753    4.9419   41.0357 H   0  0  0  0  0
  -16.5634    0.3420   43.6967 H   0  0  0  0  0
  -15.8276    1.2845   45.0485 H   0  0  0  0  0
  -12.6994   -0.7928   43.7724 H   0  0  0  0  0
  -14.3774   -2.6747   44.5225 H   0  0  0  0  0
  -16.4789   -1.4342   45.2382 H   0  0  0  0  0
  -15.6941   -2.1599   47.9765 H   0  0  0  0  0
  -14.1879   -3.0885   47.6334 H   0  0  0  0  0
  -15.6308   -3.2962   46.5794 H   0  0  0  0  0
  -14.2656    0.2341   47.7225 H   0  0  0  0  0
  -13.3686    0.4968   46.1861 H   0  0  0  0  0
  -12.7653   -0.7018   47.3802 H   0  0  0  0  0
  -12.0038   -1.7853   41.6363 H   0  0  0  0  0
  -14.4400   -2.5871   39.9610 H   0  0  0  0  0
  -13.7417   -1.3758   38.1824 H   0  0  0  0  0
  -12.0713   -1.9950   38.2867 H   0  0  0  0  0
  -11.3432   -0.2177   39.8045 H   0  0  0  0  0
  -13.0268    0.2120   40.1952 H   0  0  0  0  0
  -12.4950    2.0368   38.8758 H   0  0  0  0  0
  -13.2481    0.9763   37.6481 H   0  0  0  0  0
  -11.0702    1.9752   36.7758 H   0  0  0  0  0
  -10.8797    0.1980   36.9374 H   0  0  0  0  0
  -10.1654    1.2959   38.1684 H   0  0  0  0  0
  -12.6381   -5.3108   41.1497 H   0  0  0  0  0
  -11.5719   -3.7181   40.0518 H   0  0  0  0  0
  -14.7843   -5.5303   39.6976 H   0  0  0  0  0
  -14.4358   -6.7200   37.0206 H   0  0  0  0  0
  -15.7371   -5.0245   35.7029 H   0  0  0  0  0
  -15.7741   -3.8877   37.2022 H   0  0  0  0  0
  -16.9745   -5.6265   38.4929 H   0  0  0  0  0
  -16.9406   -6.7632   36.9957 H   0  0  0  0  0
  1  2  2  0  0  0
  1  3  1  0  0  0
  1 18  1  0  0  0
  3  4  1  0  0  0
  3 50  1  0  0  0
  4  5  1  0  0  0
  4  6  1  0  0  0
  4 10  1  0  0  0
  5  7  1  0  0  0
  5 51  1  0  0  0
  5 52  1  0  0  0
  6  8  1  0  0  0
  6 53  1  0  0  0
  6 54  1  0  0  0
  7  9  1  0  0  0
  7 55  1  0  0  0
  7 56  1  0  0  0
  8  9  1  0  0  0
  8 57  1  0  0  0
  8 58  1  0  0  0
  9 59  1  0  0  0
  9 60  1  0  0  0
 10 11  1  0  0  0
 10 61  1  0  0  0
 10 62  1  0  0  0
 11 12  2  0  0  0
 11 13  2  0  0  0
 11 14  1  0  0  0
 14 15  1  0  0  0
 14 16  1  0  0  0
 14 17  1  0  0  0
 15 63  1  0  0  0
 15 64  1  0  0  0
 15 65  1  0  0  0
 16 66  1  0  0  0
 16 67  1  0  0  0
 16 68  1  0  0  0
 17 69  1  0  0  0
 17 70  1  0  0  0
 17 71  1  0  0  0
 18 19  1  0  0  0
 18 72  1  0  0  0
 19 20  1  0  0  0
 19 24  1  0  0  0
 19 73  1  0  0  0
 20 21  1  0  0  0
 20 22  1  0  0  0
 20 23  1  0  0  0
 21 74  1  0  0  0
 21 75  1  0  0  0
 21 76  1  0  0  0
 22 77  1  0  0  0
 22 78  1  0  0  0
 22 79  1  0  0  0
 23 80  1  0  0  0
 23 81  1  0  0  0
 23 82  1  0  0  0
 24 25  2  0  0  0
 24 26  1  0  0  0
 26 27  1  0  0  0
 26 28  1  0  0  0
 27 30  1  0  0  0
 27 83  1  0  0  0
 27 84  1  0  0  0
 28 29  1  0  0  0
 28 34  1  0  0  0
 28 85  1  0  0  0
 29 30  1  0  0  0
 29 31  1  0  0  0
 29 86  1  0  0  0
 30 31  1  0  0  0
 30 87  1  0  0  0
 31 32  1  0  0  0
 31 33  1  0  0  0
 32 88  1  0  0  0
 32 89  1  0  0  0
 32 90  1  0  0  0
 33 91  1  0  0  0
 33 92  1  0  0  0
 33 93  1  0  0  0
 34 35  2  0  0  0
 34 36  1  0  0  0
 36 37  1  0  0  0
 36 94  1  0  0  0
 37 38  1  0  0  0
 37 43  1  0  0  0
 37 95  1  0  0  0
 38 39  1  0  0  0
 38 96  1  0  0  0
 38 97  1  0  0  0
 39 40  1  0  0  0
 39 98  1  0  0  0
 39 99  1  0  0  0
 40 41  1  0  0  0
 40100  1  0  0  0
 40101  1  0  0  0
 41102  1  0  0  0
 41103  1  0  0  0
 41104  1  0  0  0
 42 43  1  0  0  0
 42105  1  0  0  0
 43 49  1  0  0  0
 43106  1  0  0  0
 44 49  2  0  0  0
 45 46  1  0  0  0
 45 49  1  0  0  0
 45107  1  0  0  0
 46 47  1  0  0  0
 46 48  1  0  0  0
 46108  1  0  0  0
 47 48  1  0  0  0
 47109  1  0  0  0
 47110  1  0  0  0
 48111  1  0  0  0
 48112  1  0  0  0
M  END
$$$$
