DMS_2_A_1005
  -ISIS-            3D

 10  9  0  0  0  0  0  0  0  0  1 V2000
  -20.7240   14.2920   -7.7250 S   0  0  0  0  0
  -21.8280   15.2640   -7.7500 O   0  0  0  0  0
  -20.9730   13.2860   -9.1570 C   0  0  0  0  0
  -21.1970   13.1140   -6.4950 C   0  0  0  0  0
  -20.2831   12.4179   -9.1313 H   0  0  0  0  0
  -20.7614   13.8832  -10.0675 H   0  0  0  0  0
  -22.0204   12.9225   -9.1995 H   0  0  0  0  0
  -20.5043   12.2481   -6.5175 H   0  0  0  0  0
  -22.2335   12.7605   -6.6731 H   0  0  0  0  0
  -21.1445   13.5869   -5.4929 H   0  0  0  0  0
  1  2  2  0  0  0
  1  3  1  0  0  0
  1  4  1  0  0  0
  3  5  1  0  0  0
  3  6  1  0  0  0
  3  7  1  0  0  0
  4  8  1  0  0  0
  4  9  1  0  0  0
  4 10  1  0  0  0
M  END
$$$$
