NHE_1_A_502
  -ISIS-            3D

 29 29  0  0  0  0  0  0  0  0  1 V2000
    0.1250    8.4840   -7.3390 C   0  0  0  0  0
   -0.3460    8.8310   -5.9300 C   0  0  0  0  0
   -0.6320   10.3220   -5.7910 C   0  0  0  0  0
   -1.6390   10.7610   -6.8370 C   0  0  0  0  0
   -1.2140   10.6310   -4.4690 N   0  0  0  0  0
   -1.3330   12.0410   -4.0740 C   0  0  0  0  0
    0.0230   12.7250   -3.9220 C   0  0  0  0  0
    0.8410   12.2960   -2.4100 S   0  0  0  0  0
    0.4200   10.9570   -2.0980 O   0  5  0  0  0
    2.2900   12.3540   -2.7140 O   0  0  0  0  0
    0.5190   13.3270   -1.4320 O   0  0  0  0  0
   -1.1610   10.4170   -8.2480 C   0  0  0  0  0
   -0.8760    8.9380   -8.3910 C   0  0  0  0  0
    0.2848    7.3837   -7.4216 H   0  0  0  0  0
    1.1144    8.9607   -7.5309 H   0  0  0  0  0
    0.4280    8.5257   -5.1886 H   0  0  0  0  0
   -1.2610    8.2410   -5.6925 H   0  0  0  0  0
    0.3230   10.8763   -5.9238 H   0  0  0  0  0
   -1.8088   11.8600   -6.7886 H   0  0  0  0  0
   -2.6271   10.2770   -6.6593 H   0  0  0  0  0
   -2.1077   10.1593   -4.3510 H   0  0  0  0  0
   -1.8976   12.1110   -3.1175 H   0  0  0  0  0
   -1.9455   12.5953   -4.8164 H   0  0  0  0  0
   -0.0936   13.8291   -3.9005 H   0  0  0  0  0
    0.7197   12.4999   -4.7518 H   0  0  0  0  0
   -0.2430   11.0033   -8.4859 H   0  0  0  0  0
   -1.9324   10.7253   -8.9916 H   0  0  0  0  0
   -1.8221    8.3577   -8.2870 H   0  0  0  0  0
   -0.4806    8.7219   -9.4106 H   0  0  0  0  0
  1  2  1  0  0  0
  1 13  1  0  0  0
  1 14  1  0  0  0
  1 15  1  0  0  0
  2  3  1  0  0  0
  2 16  1  0  0  0
  2 17  1  0  0  0
  3  4  1  0  0  0
  3  5  1  0  0  0
  3 18  1  0  0  0
  4 12  1  0  0  0
  4 19  1  0  0  0
  4 20  1  0  0  0
  5  6  1  0  0  0
  5 21  1  0  0  0
  6  7  1  0  0  0
  6 22  1  0  0  0
  6 23  1  0  0  0
  7  8  1  0  0  0
  7 24  1  0  0  0
  7 25  1  0  0  0
  8  9  1  0  0  0
  8 10  2  0  0  0
  8 11  2  0  0  0
 12 13  1  0  0  0
 12 26  1  0  0  0
 12 27  1  0  0  0
 13 28  1  0  0  0
 13 29  1  0  0  0
M  END
$$$$
