DMS_1_A_502
  -ISIS-            3D

 10  9  0  0  0  0  0  0  0  0  1 V2000
   -3.8190  -12.6260   -8.5620 S   0  0  0  0  0
   -2.8980  -13.6580   -9.1620 O   0  0  0  0  0
   -4.8750  -13.4930   -7.4330 C   0  0  0  0  0
   -2.8420  -11.6980   -7.3960 C   0  0  0  0  0
   -5.4899  -12.7675   -6.8619 H   0  0  0  0  0
   -4.2700  -14.0991   -6.7282 H   0  0  0  0  0
   -5.5491  -14.1650   -8.0025 H   0  0  0  0  0
   -3.4960  -11.0067   -6.8258 H   0  0  0  0  0
   -2.0822  -11.1045   -7.9444 H   0  0  0  0  0
   -2.3281  -12.3850   -6.6931 H   0  0  0  0  0
  1  2  2  0  0  0
  1  3  1  0  0  0
  1  4  1  0  0  0
  3  5  1  0  0  0
  3  6  1  0  0  0
  3  7  1  0  0  0
  4  8  1  0  0  0
  4  9  1  0  0  0
  4 10  1  0  0  0
M  END
$$$$
