DMS_2_A_501
  -ISIS-            3D

 10  9  0  0  0  0  0  0  0  0  1 V2000
   15.2420   14.1210  -17.5940 S   0  0  0  0  0
   16.3880   13.1710  -17.6800 O   0  0  0  0  0
   13.8100   13.1210  -17.2310 C   0  0  0  0  0
   14.8400   14.5470  -19.2760 C   0  0  0  0  0
   12.8928   13.7414  -17.2981 H   0  0  0  0  0
   13.8963   12.7178  -16.2013 H   0  0  0  0  0
   13.7383   12.2763  -17.9461 H   0  0  0  0  0
   13.9006   15.1367  -19.2993 H   0  0  0  0  0
   14.7161   13.6299  -19.8873 H   0  0  0  0  0
   15.6591   15.1600  -19.7046 H   0  0  0  0  0
  1  2  2  0  0  0
  1  3  1  0  0  0
  1  4  1  0  0  0
  3  5  1  0  0  0
  3  6  1  0  0  0
  3  7  1  0  0  0
  4  8  1  0  0  0
  4  9  1  0  0  0
  4 10  1  0  0  0
M  END
$$$$
