EDO_1_A_401
  -ISIS-            3D

 10  9  0  0  0  0  0  0  0  0  1 V2000
   11.0690   -1.3330   21.3980 C   0  0  0  0  0
   12.2840   -1.3470   20.6320 O   0  0  0  0  0
   10.2430   -2.5520   21.0000 C   0  0  0  0  0
    8.8900   -2.3920   21.4560 O   0  0  0  0  0
   10.5099   -0.3986   21.1788 H   0  0  0  0  0
   11.3003   -1.3479   22.4835 H   0  0  0  0  0
   12.7684   -0.5572   20.8325 H   0  0  0  0  0
   10.6885   -3.4836   21.4088 H   0  0  0  0  0
   10.2236   -2.6561   19.8949 H   0  0  0  0  0
    8.7374   -3.0034   22.1643 H   0  0  0  0  0
  1  2  1  0  0  0
  1  3  1  0  0  0
  1  5  1  0  0  0
  1  6  1  0  0  0
  2  7  1  0  0  0
  3  4  1  0  0  0
  3  8  1  0  0  0
  3  9  1  0  0  0
  4 10  1  0  0  0
M  END
$$$$
