EDO_1_B_402
  -ISIS-            3D

 10  9  0  0  0  0  0  0  0  0  1 V2000
   37.6550   -8.1240   27.7400 C   0  0  0  0  0
   37.4500   -6.7390   27.4200 O   0  0  0  0  0
   39.1530   -8.4160   27.7450 C   0  0  0  0  0
   39.3600   -9.8300   27.6260 O   0  0  0  0  0
   37.1482   -8.7355   26.9647 H   0  0  0  0  0
   37.1891   -8.3749   28.7158 H   0  0  0  0  0
   37.5065   -6.2356   28.2214 H   0  0  0  0  0
   39.6242   -8.0397   28.6771 H   0  0  0  0  0
   39.6449   -7.9075   26.8885 H   0  0  0  0  0
   40.2924   -9.9894   27.5601 H   0  0  0  0  0
  1  2  1  0  0  0
  1  3  1  0  0  0
  1  5  1  0  0  0
  1  6  1  0  0  0
  2  7  1  0  0  0
  3  4  1  0  0  0
  3  8  1  0  0  0
  3  9  1  0  0  0
  4 10  1  0  0  0
M  END
$$$$
