EDO_1_A_401
  -ISIS-            3D

 10  9  0  0  0  0  0  0  0  0  1 V2000
  -20.4970   -4.9640    7.4170 C   0  0  0  0  0
  -20.9130   -6.0010    8.3230 O   0  0  0  0  0
  -19.4540   -4.0610    8.0730 C   0  0  0  0  0
  -18.2980   -4.8260    8.4600 O   0  0  0  0  0
  -21.3866   -4.3719    7.1196 H   0  0  0  0  0
  -20.0891   -5.4256    6.4935 H   0  0  0  0  0
  -20.1252   -6.3147    8.7520 H   0  0  0  0  0
  -19.8813   -3.5804    8.9774 H   0  0  0  0  0
  -19.1553   -3.2425    7.3837 H   0  0  0  0  0
  -17.6867   -4.8326    7.7353 H   0  0  0  0  0
  1  2  1  0  0  0
  1  3  1  0  0  0
  1  5  1  0  0  0
  1  6  1  0  0  0
  2  7  1  0  0  0
  3  4  1  0  0  0
  3  8  1  0  0  0
  3  9  1  0  0  0
  4 10  1  0  0  0
M  END
$$$$
