4FS_1_A_201
  -ISIS-            3D

 19 20  0  0  0  0  0  0  0  0  1 V2000
  -51.9820  -29.6620    5.9900 C   0  0  0  0  0
  -47.4840  -28.7790    4.1810 C   0  0  0  0  0
  -49.7040  -29.0020    3.3320 C   0  0  0  0  0
  -47.9300  -29.0090    5.4540 C   0  0  0  0  0
  -51.8180  -29.9760    8.4300 N   0  0  0  0  0
  -51.2030  -29.6990    7.1470 C   0  0  0  0  0
  -49.8360  -29.4670    7.0100 C   0  0  0  0  0
  -49.3200  -29.2130    5.6970 C   0  0  0  0  0
  -50.1740  -29.2100    4.6510 C   0  0  0  0  0
  -51.4700  -29.4580    4.8250 N   0  0  0  0  0
  -48.3650  -28.7620    3.1000 C   0  0  0  0  0
  -53.0684  -29.8371    6.0519 H   0  0  0  0  0
  -46.4088  -28.6054    4.0031 H   0  0  0  0  0
  -50.4158  -29.0232    2.4900 H   0  0  0  0  0
  -47.2147  -29.0298    6.2934 H   0  0  0  0  0
  -51.1837  -30.0008    9.2383 H   0  0  0  0  0
  -52.8351  -30.1259    8.4361 H   0  0  0  0  0
  -49.1681  -29.4848    7.8857 H   0  0  0  0  0
  -47.9960  -28.5737    2.0779 H   0  0  0  0  0
  1  6  2  0  0  0
  1 10  1  0  0  0
  1 12  1  0  0  0
  2  4  2  0  0  0
  2 11  1  0  0  0
  2 13  1  0  0  0
  3  9  1  0  0  0
  3 11  2  0  0  0
  3 14  1  0  0  0
  4  8  1  0  0  0
  4 15  1  0  0  0
  5  6  1  0  0  0
  5 16  1  0  0  0
  5 17  1  0  0  0
  6  7  1  0  0  0
  7  8  2  0  0  0
  7 18  1  0  0  0
  8  9  1  0  0  0
  9 10  2  0  0  0
 11 19  1  0  0  0
M  END
$$$$
