EDO_1_A_410
  -ISIS-            3D

 10  9  0  0  0  0  0  0  0  0  1 V2000
  -55.3650   45.5010   -0.4130 C   0  0  0  0  0
  -54.4580   45.0010   -1.4050 O   0  0  0  0  0
  -54.5920   46.1670    0.7180 C   0  0  0  0  0
  -53.6330   47.0840    0.1770 O   0  0  0  0  0
  -55.9851   44.6653   -0.0287 H   0  0  0  0  0
  -56.0551   46.2290   -0.8895 H   0  0  0  0  0
  -53.8044   45.6798   -1.5314 H   0  0  0  0  0
  -54.0633   45.3982    1.3209 H   0  0  0  0  0
  -55.2868   46.7040    1.3977 H   0  0  0  0  0
  -53.1671   47.4847    0.8987 H   0  0  0  0  0
  1  2  1  0  0  0
  1  3  1  0  0  0
  1  5  1  0  0  0
  1  6  1  0  0  0
  2  7  1  0  0  0
  3  4  1  0  0  0
  3  8  1  0  0  0
  3  9  1  0  0  0
  4 10  1  0  0  0
M  END
$$$$
