EDO_3_B_404
  -ISIS-            3D

 10  9  0  0  0  0  0  0  0  0  1 V2000
  -99.0780   25.8430   26.2180 C   0  0  0  0  0
  -98.0800   24.8320   26.4010 O   0  0  0  0  0
  -98.4720   27.0640   25.5310 C   0  0  0  0  0
  -97.4350   27.6130   26.3540 O   0  0  0  0  0
  -99.4887   26.1247   27.2099 H   0  0  0  0  0
  -99.9231   25.4379   25.6220 H   0  0  0  0  0
  -98.0491   24.2937   25.6211 H   0  0  0  0  0
  -99.2468   27.8405   25.3644 H   0  0  0  0  0
  -98.0555   26.7950   24.5379 H   0  0  0  0  0
  -96.9206   26.8778   26.6672 H   0  0  0  0  0
  1  2  1  0  0  0
  1  3  1  0  0  0
  1  5  1  0  0  0
  1  6  1  0  0  0
  2  7  1  0  0  0
  3  4  1  0  0  0
  3  8  1  0  0  0
  3  9  1  0  0  0
  4 10  1  0  0  0
M  END
$$$$
