EDO_2_B_404
  -ISIS-            3D

 10  9  0  0  0  0  0  0  0  0  1 V2000
  -79.0200   72.8820   26.2180 C   0  0  0  0  0
  -80.3950   72.5240   26.4010 O   0  0  0  0  0
  -78.2660   71.7470   25.5310 C   0  0  0  0  0
  -78.3090   70.5750   26.3540 O   0  0  0  0  0
  -78.5651   73.1199   27.2023 H   0  0  0  0  0
  -78.9702   73.8047   25.6037 H   0  0  0  0  0
  -80.4008   71.6258   26.7115 H   0  0  0  0  0
  -77.2119   72.0360   25.3342 H   0  0  0  0  0
  -78.7284   71.5148   24.5492 H   0  0  0  0  0
  -77.5858   70.6097   26.9663 H   0  0  0  0  0
  1  2  1  0  0  0
  1  3  1  0  0  0
  1  5  1  0  0  0
  1  6  1  0  0  0
  2  7  1  0  0  0
  3  4  1  0  0  0
  3  8  1  0  0  0
  3  9  1  0  0  0
  4 10  1  0  0  0
M  END
$$$$
