EDO_1_A_406
  -ISIS-            3D

 10  9  0  0  0  0  0  0  0  0  1 V2000
  -93.6100    8.0420  -43.6430 C   0  0  0  0  0
  -94.9200    8.0240  -44.2200 O   0  0  0  0  0
  -92.6500    7.2740  -44.5410 C   0  0  0  0  0
  -92.3690    8.0340  -45.7210 O   0  0  0  0  0
  -93.6523    7.5709  -42.6382 H   0  0  0  0  0
  -93.2643    9.0885  -43.5067 H   0  0  0  0  0
  -95.4563    8.6560  -43.7597 H   0  0  0  0  0
  -93.0793    6.2869  -44.8144 H   0  0  0  0  0
  -91.6977    7.0830  -44.0023 H   0  0  0  0  0
  -91.9364    7.4659  -46.3447 H   0  0  0  0  0
  1  2  1  0  0  0
  1  3  1  0  0  0
  1  5  1  0  0  0
  1  6  1  0  0  0
  2  7  1  0  0  0
  3  4  1  0  0  0
  3  8  1  0  0  0
  3  9  1  0  0  0
  4 10  1  0  0  0
M  END
$$$$
