EDO_2_A_406
  -ISIS-            3D

 10  9  0  0  0  0  0  0  0  0  1 V2000
  -35.6300   45.6280  -43.6430 C   0  0  0  0  0
  -34.9590   44.5030  -44.2200 O   0  0  0  0  0
  -35.4440   46.8440  -44.5410 C   0  0  0  0  0
  -36.2430   46.7070  -45.7210 O   0  0  0  0  0
  -35.1929   45.8214  -42.6414 H   0  0  0  0  0
  -36.7051   45.3963  -43.4931 H   0  0  0  0  0
  -35.3223   44.3884  -45.0899 H   0  0  0  0  0
  -34.3759   46.9711  -44.8168 H   0  0  0  0  0
  -35.7567   47.7614  -43.9981 H   0  0  0  0  0
  -36.1119   47.4766  -46.2588 H   0  0  0  0  0
  1  2  1  0  0  0
  1  3  1  0  0  0
  1  5  1  0  0  0
  1  6  1  0  0  0
  2  7  1  0  0  0
  3  4  1  0  0  0
  3  8  1  0  0  0
  3  9  1  0  0  0
  4 10  1  0  0  0
M  END
$$$$
