EDO_2_A_410
  -ISIS-            3D

 10  9  0  0  0  0  0  0  0  0  1 V2000
  -87.1930   60.0200   -0.4130 C   0  0  0  0  0
  -87.2130   61.0550   -1.4050 O   0  0  0  0  0
  -88.1560   60.3560    0.7180 C   0  0  0  0  0
  -89.4290   60.7280    0.1770 O   0  0  0  0  0
  -86.1592   59.9006   -0.0287 H   0  0  0  0  0
  -87.4785   59.0584   -0.8895 H   0  0  0  0  0
  -88.1276   61.2813   -1.5323 H   0  0  0  0  0
  -87.7545   61.1980    1.3212 H   0  0  0  0  0
  -88.2738   59.4855    1.3973 H   0  0  0  0  0
  -90.0081   60.9346    0.8984 H   0  0  0  0  0
  1  2  1  0  0  0
  1  3  1  0  0  0
  1  5  1  0  0  0
  1  6  1  0  0  0
  2  7  1  0  0  0
  3  4  1  0  0  0
  3  8  1  0  0  0
  3  9  1  0  0  0
  4 10  1  0  0  0
M  END
$$$$
