EDO_1_B_408
  -ISIS-            3D

 10  9  0  0  0  0  0  0  0  0  1 V2000
  -59.4560   11.6520   19.2180 C   0  0  0  0  0
  -60.1620   11.5500   17.9780 O   0  0  0  0  0
  -59.8670   10.4970   20.1220 C   0  0  0  0  0
  -59.5850    9.2630   19.4540 O   0  0  0  0  0
  -59.6952   12.6258   19.6927 H   0  0  0  0  0
  -58.3627   11.6360   19.0256 H   0  0  0  0  0
  -60.1230   10.6353   17.7217 H   0  0  0  0  0
  -60.9530   10.5462   20.3458 H   0  0  0  0  0
  -59.3294   10.5462   21.0927 H   0  0  0  0  0
  -58.8302    8.8618   19.8637 H   0  0  0  0  0
  1  2  1  0  0  0
  1  3  1  0  0  0
  1  5  1  0  0  0
  1  6  1  0  0  0
  2  7  1  0  0  0
  3  4  1  0  0  0
  3  8  1  0  0  0
  3  9  1  0  0  0
  4 10  1  0  0  0
M  END
$$$$
