EDO_2_B_408
  -ISIS-            3D

 10  9  0  0  0  0  0  0  0  0  1 V2000
  -55.8330   73.4010   19.2180 C   0  0  0  0  0
  -55.3920   72.8410   17.9780 O   0  0  0  0  0
  -54.6270   73.6230   20.1220 C   0  0  0  0  0
  -53.6990   74.4840   19.4540 O   0  0  0  0  0
  -56.5562   72.7067   19.6929 H   0  0  0  0  0
  -56.3668   74.3551   19.0256 H   0  0  0  0  0
  -54.6069   73.3168   17.7307 H   0  0  0  0  0
  -54.1265   72.6579   20.3447 H   0  0  0  0  0
  -54.9341   74.0649   21.0934 H   0  0  0  0  0
  -53.8896   75.3802   19.6975 H   0  0  0  0  0
  1  2  1  0  0  0
  1  3  1  0  0  0
  1  5  1  0  0  0
  1  6  1  0  0  0
  2  7  1  0  0  0
  3  4  1  0  0  0
  3  8  1  0  0  0
  3  9  1  0  0  0
  4 10  1  0  0  0
M  END
$$$$
