U3P_1_A_401
  -ISIS-            3D

 33 34  0  0  0  0  0  0  0  0  1 V2000
  -98.4670   16.2420  -29.7870 N   0  0  0  0  0
  -98.8130   15.6300  -30.9780 C   0  0  0  0  0
  -99.9730   14.8980  -30.9340 N   0  0  0  0  0
 -100.8060   14.7220  -29.8460 C   0  0  0  0  0
 -100.3790   15.3890  -28.6500 C   0  0  0  0  0
  -99.2480   16.1110  -28.6630 C   0  0  0  0  0
  -98.1390   15.7250  -31.9960 O   0  0  0  0  0
 -101.8190   14.0330  -29.9660 O   0  0  0  0  0
  -94.4250   20.1050  -30.9970 P   0  0  0  0  0
  -93.8310   20.8720  -29.8290 O   0  0  0  0  0
  -93.3560   19.5830  -31.9380 O   0  0  0  0  0
  -95.4810   20.9100  -31.7260 O   0  0  0  0  0
  -97.6820   18.7820  -26.7790 O   0  0  0  0  0
  -96.2730   18.6320  -26.8680 C   0  0  0  0  0
  -95.8560   18.1140  -28.2260 C   0  0  0  0  0
  -96.5940   16.8970  -28.5190 O   0  0  0  0  0
  -96.1100   19.0560  -29.4040 C   0  0  0  0  0
  -95.1340   18.7850  -30.4010 O   0  0  0  0  0
  -97.4540   18.5440  -29.9250 C   0  0  0  0  0
  -97.7340   18.8800  -31.2680 O   0  0  0  0  0
  -97.2260   17.0420  -29.7720 C   0  0  0  0  0
 -101.0042   15.2837  -27.7495 H   0  0  0  0  0
  -98.8929   16.6357  -27.7649 H   0  0  0  0  0
  -97.8935   19.1165  -25.9176 H   0  0  0  0  0
  -95.9353   17.9264  -26.0790 H   0  0  0  0  0
  -95.7806   19.6060  -26.6631 H   0  0  0  0  0
  -94.7710   17.8753  -28.1816 H   0  0  0  0  0
  -96.1653   20.1171  -29.0893 H   0  0  0  0  0
  -98.2812   18.8875  -29.2700 H   0  0  0  0  0
  -98.3439   18.2487  -31.6294 H   0  0  0  0  0
  -96.5189   16.6939  -30.5563 H   0  0  0  0  0
  -96.3032   20.2311  -32.1125 H   0  0  0  0  0
 -100.2510   14.4292  -31.8070 H   0  0  0  0  0
  1  2  1  0  0  0
  1  6  1  0  0  0
  1 21  1  0  0  0
  2  3  1  0  0  0
  2  7  2  0  0  0
  3  4  1  0  0  0
  4  5  1  0  0  0
  4  8  2  0  0  0
  5  6  2  0  0  0
  5 22  1  0  0  0
  6 23  1  0  0  0
  9 10  2  0  0  0
  9 11  2  0  0  0
  9 12  1  0  0  0
  9 18  1  0  0  0
 13 14  1  0  0  0
 13 24  1  0  0  0
 14 15  1  0  0  0
 14 25  1  0  0  0
 14 26  1  0  0  0
 15 16  1  0  0  0
 15 17  1  0  0  0
 15 27  1  0  0  0
 16 21  1  0  0  0
 17 18  1  0  0  0
 17 19  1  0  0  0
 17 28  1  0  0  0
 19 20  1  0  0  0
 19 21  1  0  0  0
 19 29  1  0  0  0
 20 30  1  0  0  0
 21 31  1  0  0  0
 12 32  1  0  0  0
  3 33  1  0  0  0
M  END
$$$$
