NHE_1_A_404
  -ISIS-            3D

 30 30  0  0  0  0  0  0  0  0  1 V2000
    7.3080  -23.6170    9.1560 C   0  0  0  0  0
    7.9360  -22.4570    8.3800 C   0  0  0  0  0
    8.9680  -22.9160    7.3380 C   0  0  0  0  0
    8.6820  -24.3220    6.7990 C   0  0  0  0  0
    9.0960  -21.9870    6.2260 N   0  0  0  0  0
    8.6870  -20.5930    6.2490 C   0  0  0  0  0
    8.5980  -20.1010    4.8100 C   0  0  0  0  0
    8.0250  -18.5380    4.7010 S   0  0  0  0  0
    6.9250  -18.1430    5.5520 O   0  0  0  0  0
    8.3800  -17.7110    3.5650 O   0  0  0  0  0
    6.8940  -19.1670    3.7020 O   0  0  0  0  0
    8.6520  -25.3880    7.8950 C   0  0  0  0  0
    8.2340  -24.8320    9.2590 C   0  0  0  0  0
    6.3660  -23.9337    8.6494 H   0  0  0  0  0
    7.0116  -23.2737   10.1743 H   0  0  0  0  0
    8.4131  -21.7378    9.0851 H   0  0  0  0  0
    7.0942  -21.9183    7.8936 H   0  0  0  0  0
    9.9571  -22.9553    7.8586 H   0  0  0  0  0
    9.4374  -24.6042    6.0299 H   0  0  0  0  0
    7.6978  -24.3068    6.2754 H   0  0  0  0  0
    9.9981  -22.0970    5.7669 H   0  0  0  0  0
    9.4093  -19.9911    6.8438 H   0  0  0  0  0
    7.6904  -20.4855    6.7200 H   0  0  0  0  0
    8.0012  -20.8140    4.2043 H   0  0  0  0  0
    9.6097  -20.0817    4.3509 H   0  0  0  0  0
    6.0186  -18.3024    3.2657 H   0  0  0  0  0
    9.6572  -25.8614    7.9891 H   0  0  0  0  0
    7.9541  -26.2023    7.5898 H   0  0  0  0  0
    7.7454  -25.6346    9.8587 H   0  0  0  0  0
    9.1456  -24.5339    9.8284 H   0  0  0  0  0
  1  2  1  0  0  0
  1 13  1  0  0  0
  1 14  1  0  0  0
  1 15  1  0  0  0
  2  3  1  0  0  0
  2 16  1  0  0  0
  2 17  1  0  0  0
  3  4  1  0  0  0
  3  5  1  0  0  0
  3 18  1  0  0  0
  4 12  1  0  0  0
  4 19  1  0  0  0
  4 20  1  0  0  0
  5  6  1  0  0  0
  5 21  1  0  0  0
  6  7  1  0  0  0
  6 22  1  0  0  0
  6 23  1  0  0  0
  7  8  1  0  0  0
  7 24  1  0  0  0
  7 25  1  0  0  0
  8  9  2  0  0  0
  8 10  2  0  0  0
  8 11  1  0  0  0
 11 26  1  0  0  0
 12 13  1  0  0  0
 12 27  1  0  0  0
 12 28  1  0  0  0
 13 29  1  0  0  0
 13 30  1  0  0  0
M  END
$$$$
