DMS_1_A_404
  -ISIS-            3D

 10  9  0  0  0  0  0  0  0  0  1 V2000
    2.3710  -18.8550    7.9840 S   0  0  0  0  0
    1.9750  -20.2010    7.5460 O   0  0  0  0  0
    3.6280  -19.1600    9.1960 C   0  0  0  0  0
    1.0580  -18.3330    9.0620 C   0  0  0  0  0
    3.8818  -18.2150    9.7183 H   0  0  0  0  0
    4.5382  -19.5468    8.6935 H   0  0  0  0  0
    3.2785  -19.9074    9.9377 H   0  0  0  0  0
    1.3506  -17.3985    9.5829 H   0  0  0  0  0
    0.8378  -19.1196    9.8128 H   0  0  0  0  0
    0.1453  -18.1386    8.4624 H   0  0  0  0  0
  1  2  2  0  0  0
  1  3  1  0  0  0
  1  4  1  0  0  0
  3  5  1  0  0  0
  3  6  1  0  0  0
  3  7  1  0  0  0
  4  8  1  0  0  0
  4  9  1  0  0  0
  4 10  1  0  0  0
M  END
$$$$
