EDO_1_A_1002
  -ISIS-            3D

 10  9  0  0  0  0  0  0  0  0  1 V2000
  -42.5220  -38.1850   26.0150 C   0  0  0  0  0
  -42.2070  -37.5300   24.7810 O   0  0  0  0  0
  -42.8050  -39.6570   25.7450 C   0  0  0  0  0
  -41.6440  -40.2670   25.1710 O   0  0  0  0  0
  -43.4097  -37.7027   26.4762 H   0  0  0  0  0
  -41.6747  -38.0758   26.7246 H   0  0  0  0  0
  -42.0387  -36.6158   24.9660 H   0  0  0  0  0
  -43.6670  -39.7745   25.0553 H   0  0  0  0  0
  -43.0615  -40.1845   26.6867 H   0  0  0  0  0
  -41.3750  -39.7026   24.4551 H   0  0  0  0  0
  1  2  1  0  0  0
  1  3  1  0  0  0
  1  5  1  0  0  0
  1  6  1  0  0  0
  2  7  1  0  0  0
  3  4  1  0  0  0
  3  8  1  0  0  0
  3  9  1  0  0  0
  4 10  1  0  0  0
M  END
$$$$
