PGE_1_L_302
  -ISIS-            3D

 24 23  0  0  0  0  0  0  0  0  1 V2000
  -31.5730   52.1260   40.5770 C   0  0  0  0  0
  -32.8430   52.3500   39.9800 O   0  0  0  0  0
  -31.6100   52.6350   42.0020 C   0  0  0  0  0
  -30.5930   52.0150   42.7640 O   0  0  0  0  0
  -30.9210   51.8890   44.1340 C   0  0  0  0  0
  -31.3820   50.4670   44.3890 C   0  0  0  0  0
  -35.1920   49.5730   43.8520 O   0  0  0  0  0
  -34.2760   50.5360   43.3510 C   0  0  0  0  0
  -33.6280   51.2630   44.5130 C   0  0  0  0  0
  -32.6180   50.4500   45.0820 O   0  0  0  0  0
  -30.7771   52.6362   39.9953 H   0  0  0  0  0
  -31.3562   51.0365   40.5627 H   0  0  0  0  0
  -32.8177   52.0203   39.0917 H   0  0  0  0  0
  -32.6063   52.4051   42.4154 H   0  0  0  0  0
  -31.4896   53.7374   42.0369 H   0  0  0  0  0
  -31.5511   52.7187   44.4959 H   0  0  0  0  0
  -29.9746   52.0303   44.6986 H   0  0  0  0  0
  -30.6331   49.9198   44.9981 H   0  0  0  0  0
  -31.4778   49.8952   43.4442 H   0  0  0  0  0
  -34.6960   48.9625   44.3836 H   0  0  0  0  0
  -34.8475   51.2576   42.7305 H   0  0  0  0  0
  -33.5423   50.0519   42.6765 H   0  0  0  0  0
  -34.3987   51.4318   45.2946 H   0  0  0  0  0
  -33.3038   52.2786   44.2483 H   0  0  0  0  0
  1  2  1  0  0  0
  1  3  1  0  0  0
  1 11  1  0  0  0
  1 12  1  0  0  0
  2 13  1  0  0  0
  3  4  1  0  0  0
  3 14  1  0  0  0
  3 15  1  0  0  0
  4  5  1  0  0  0
  5  6  1  0  0  0
  5 16  1  0  0  0
  5 17  1  0  0  0
  6 10  1  0  0  0
  6 18  1  0  0  0
  6 19  1  0  0  0
  7  8  1  0  0  0
  7 20  1  0  0  0
  8  9  1  0  0  0
  8 21  1  0  0  0
  8 22  1  0  0  0
  9 10  1  0  0  0
  9 23  1  0  0  0
  9 24  1  0  0  0
M  END
$$$$
