CMU_3_B_401
  -ISIS-            3D

 25 26  0  0  0  0  0  0  0  0  1 V2000
  104.3490  -31.0540  -23.4960 Cl  0  0  0  0  0
  103.1120  -31.5030  -24.6070 C   0  0  0  0  0
  103.3770  -32.2330  -25.7230 C   0  0  0  0  0
  104.7770  -32.6640  -26.1080 C   0  0  0  0  0
  105.2580  -33.8880  -25.4960 N   0  0  0  0  0
  106.0530  -33.8730  -24.2720 C   0  0  0  0  0
  105.9630  -35.3170  -23.7990 C   0  0  0  0  0
  105.7500  -36.1340  -25.0690 C   0  0  0  0  0
  105.1380  -35.1430  -26.0180 C   0  0  0  0  0
  104.6380  -35.4090  -27.1640 N   0  0  0  0  0
  102.3510  -32.5340  -26.5820 N   0  0  0  0  0
  101.0450  -32.1740  -26.3550 C   0  0  0  0  0
  100.1450  -32.4610  -27.1230 O   0  0  0  0  0
  100.8000  -31.4470  -25.2230 N   0  0  0  0  0
  101.7690  -31.0830  -24.3160 C   0  0  0  0  0
  101.4250  -30.4290  -23.3120 O   0  0  0  0  0
  105.4861  -31.8428  -25.8590 H   0  0  0  0  0
  104.8487  -32.7257  -27.2159 H   0  0  0  0  0
  106.3768  -32.9605  -23.7628 H   0  0  0  0  0
  106.1802  -35.6946  -22.7919 H   0  0  0  0  0
  105.8755  -37.2150  -25.2064 H   0  0  0  0  0
  104.6207  -36.4069  -27.4092 H   0  0  0  0  0
  104.2956  -34.6438  -27.7545 H   0  0  0  0  0
   99.8301  -31.1584  -25.0388 H   0  0  0  0  0
  102.6037  -33.0690  -27.4218 H   0  0  0  0  0
  1  2  1  0  0  0
  2  3  2  0  0  0
  2 15  1  0  0  0
  3  4  1  0  0  0
  3 11  1  0  0  0
  4  5  1  0  0  0
  4 17  1  0  0  0
  4 18  1  0  0  0
  5  6  1  0  0  0
  5  9  2  0  0  0
  6  7  1  0  0  0
  6 19  1  0  0  0
  7  8  1  0  0  0
  7 20  1  0  0  0
  8  9  1  0  0  0
  8 21  1  0  0  0
  9 10  1  0  0  0
 10 22  1  0  0  0
 10 23  1  0  0  0
 11 12  1  0  0  0
 11 25  1  0  0  0
 12 13  2  0  0  0
 12 14  1  0  0  0
 14 15  1  0  0  0
 14 24  1  0  0  0
 15 16  2  0  0  0
M  END
$$$$
