EDO_2_A_403
  -ISIS-            3D

 10  9  0  0  0  0  0  0  0  0  1 V2000
   73.9140  -55.1640   14.6620 C   0  0  0  0  0
   73.8750  -53.7700   14.3450 O   0  0  0  0  0
   73.5600  -55.4000   16.1140 C   0  0  0  0  0
   74.6930  -55.0990   16.9390 O   0  0  0  0  0
   74.9177  -55.5797   14.4317 H   0  0  0  0  0
   73.1865  -55.6934   14.0103 H   0  0  0  0  0
   74.2301  -53.6500   13.4740 H   0  0  0  0  0
   73.2550  -56.4573   16.2686 H   0  0  0  0  0
   72.7018  -54.7676   16.4209 H   0  0  0  0  0
   75.0369  -55.9078   17.2953 H   0  0  0  0  0
  1  2  1  0  0  0
  1  3  1  0  0  0
  1  5  1  0  0  0
  1  6  1  0  0  0
  2  7  1  0  0  0
  3  4  1  0  0  0
  3  8  1  0  0  0
  3  9  1  0  0  0
  4 10  1  0  0  0
M  END
$$$$
