EDO_3_A_406
  -ISIS-            3D

 10  9  0  0  0  0  0  0  0  0  1 V2000
   80.7560  -18.2210    9.2860 C   0  0  0  0  0
   81.9150  -18.9570    8.8510 O   0  0  0  0  0
   80.7260  -18.1030   10.8080 C   0  0  0  0  0
   80.6230  -19.4270   11.3790 O   0  0  0  0  0
   79.8366  -18.7271    8.9221 H   0  0  0  0  0
   80.7749  -17.2078    8.8312 H   0  0  0  0  0
   81.8972  -19.0037    7.9040 H   0  0  0  0  0
   79.8555  -17.4996   11.1381 H   0  0  0  0  0
   81.6416  -17.6025   11.1866 H   0  0  0  0  0
   81.3045  -19.9458   10.9683 H   0  0  0  0  0
  1  2  1  0  0  0
  1  3  1  0  0  0
  1  5  1  0  0  0
  1  6  1  0  0  0
  2  7  1  0  0  0
  3  4  1  0  0  0
  3  8  1  0  0  0
  3  9  1  0  0  0
  4 10  1  0  0  0
M  END
$$$$
