EDO_3_B_407
  -ISIS-            3D

 10  9  0  0  0  0  0  0  0  0  1 V2000
   72.5290  -32.5780  -14.3750 C   0  0  0  0  0
   71.1590  -32.1180  -14.7840 O   0  0  0  0  0
   71.8260  -33.7250  -13.7800 C   0  0  0  0  0
   72.2000  -35.1680  -14.0120 O   0  0  0  0  0
   72.9997  -31.8701  -13.6644 H   0  0  0  0  0
   73.1464  -32.8267  -15.2604 H   0  0  0  0  0
   71.2711  -31.3379  -15.3113 H   0  0  0  0  0
   70.7165  -33.7166  -13.8815 H   0  0  0  0  0
   71.9477  -33.5850  -12.6806 H   0  0  0  0  0
   71.5113  -35.7082  -13.6478 H   0  0  0  0  0
  1  2  1  0  0  0
  1  3  1  0  0  0
  1  5  1  0  0  0
  1  6  1  0  0  0
  2  7  1  0  0  0
  3  4  1  0  0  0
  3  8  1  0  0  0
  3  9  1  0  0  0
  4 10  1  0  0  0
M  END
$$$$
