EDO_2_B_407
  -ISIS-            3D

 10  9  0  0  0  0  0  0  0  0  1 V2000
   86.3850  -46.5230  -14.3750 C   0  0  0  0  0
   87.4680  -45.5660  -14.7840 O   0  0  0  0  0
   85.7430  -45.3400  -13.7800 C   0  0  0  0  0
   84.3060  -44.9430  -14.0120 O   0  0  0  0  0
   86.7649  -47.2839  -13.6648 H   0  0  0  0  0
   85.8616  -46.9344  -15.2603 H   0  0  0  0  0
   88.0632  -46.0409  -15.3491 H   0  0  0  0  0
   86.3040  -44.3830  -13.8837 H   0  0  0  0  0
   85.8048  -45.5141  -12.6804 H   0  0  0  0  0
   84.1739  -44.0909  -13.6181 H   0  0  0  0  0
  1  2  1  0  0  0
  1  3  1  0  0  0
  1  5  1  0  0  0
  1  6  1  0  0  0
  2  7  1  0  0  0
  3  4  1  0  0  0
  3  8  1  0  0  0
  3  9  1  0  0  0
  4 10  1  0  0  0
M  END
$$$$
