DMS_2_A_403
  -ISIS-            3D

 10  9  0  0  0  0  0  0  0  0  1 V2000
   -2.2850  -18.8940   -8.0810 S   0  0  0  0  0
   -3.6260  -18.6240   -8.7250 O   0  0  0  0  0
   -1.0690  -18.2060   -9.1840 C   0  0  0  0  0
   -1.9210  -20.5950   -8.4440 C   0  0  0  0  0
   -0.0520  -18.5090   -8.8613 H   0  0  0  0  0
   -1.1366  -17.0993   -9.1564 H   0  0  0  0  0
   -1.2469  -18.5510  -10.2235 H   0  0  0  0  0
   -0.8793  -20.8307   -8.1446 H   0  0  0  0  0
   -2.0507  -20.7987   -9.5270 H   0  0  0  0  0
   -2.6121  -21.2463   -7.8709 H   0  0  0  0  0
  1  2  2  0  0  0
  1  3  1  0  0  0
  1  4  1  0  0  0
  3  5  1  0  0  0
  3  6  1  0  0  0
  3  7  1  0  0  0
  4  8  1  0  0  0
  4  9  1  0  0  0
  4 10  1  0  0  0
M  END
$$$$
