3EU_1_A_201
  -ISIS-            3D

 17 17  0  0  0  0  0  0  0  0  1 V2000
  -43.7980  -31.7000    2.2450 C   0  0  0  0  0
  -43.2960  -31.0550    0.9450 C   0  0  0  0  0
  -44.0110  -29.7720    0.6080 C   0  0  0  0  0
  -43.3180  -28.5670    0.6590 C   0  0  0  0  0
  -44.0460  -27.4620    0.4170 C   0  0  0  0  0
  -45.3400  -27.4570    0.1300 C   0  0  0  0  0
  -45.9970  -28.5990    0.1390 C   0  0  0  0  0
  -45.3350  -29.7640    0.4230 C   0  0  0  0  0
  -44.3230  -32.8420    2.0610 O   0  0  0  0  0
  -47.7060  -28.6410   -0.1850 Cl  0  0  0  0  0
  -43.2360  -25.9340    0.3950 Cl  0  0  0  0  0
  -43.5690  -31.1490    3.3350 O   0  0  0  0  0
  -43.4135  -31.7615    0.0914 H   0  0  0  0  0
  -42.2010  -30.8745    1.0371 H   0  0  0  0  0
  -42.2384  -28.5221    0.8770 H   0  0  0  0  0
  -45.8656  -26.5144   -0.1001 H   0  0  0  0  0
  -45.9033  -30.7092    0.4690 H   0  0  0  0  0
  1  2  1  0  0  0
  1  9  2  0  0  0
  1 12  2  0  0  0
  2  3  1  0  0  0
  2 13  1  0  0  0
  2 14  1  0  0  0
  3  4  2  0  0  0
  3  8  1  0  0  0
  4  5  1  0  0  0
  4 15  1  0  0  0
  5  6  2  0  0  0
  5 11  1  0  0  0
  6  7  1  0  0  0
  6 16  1  0  0  0
  7  8  2  0  0  0
  7 10  1  0  0  0
  8 17  1  0  0  0
M  END
$$$$
