DMS_1_A_202
  -ISIS-            3D

 10  9  0  0  0  0  0  0  0  0  1 V2000
  -44.5190  -35.5430   -2.2620 S   0  0  0  0  0
  -44.4440  -34.0300   -2.4320 O   0  0  0  0  0
  -43.7380  -36.2500   -3.6990 C   0  0  0  0  0
  -46.1630  -36.0490   -2.7380 C   0  0  0  0  0
  -43.8863  -37.3491   -3.7095 H   0  0  0  0  0
  -42.6496  -36.0388   -3.6624 H   0  0  0  0  0
  -44.1569  -35.8089   -4.6269 H   0  0  0  0  0
  -46.2224  -37.1559   -2.7787 H   0  0  0  0  0
  -46.4296  -35.6247   -3.7279 H   0  0  0  0  0
  -46.8888  -35.6813   -1.9841 H   0  0  0  0  0
  1  2  2  0  0  0
  1  3  1  0  0  0
  1  4  1  0  0  0
  3  5  1  0  0  0
  3  6  1  0  0  0
  3  7  1  0  0  0
  4  8  1  0  0  0
  4  9  1  0  0  0
  4 10  1  0  0  0
M  END
$$$$
