EDO_1_A_403
  -ISIS-            3D

 10  9  0  0  0  0  0  0  0  0  1 V2000
   20.0450    1.9770   36.7550 C   0  0  0  0  0
   19.4480    0.7460   36.3470 O   0  0  0  0  0
   21.0590    2.4200   35.7110 C   0  0  0  0  0
   20.3900    2.9690   34.5680 O   0  0  0  0  0
   20.5490    1.8135   37.7302 H   0  0  0  0  0
   19.2638    2.7488   36.9160 H   0  0  0  0  0
   19.0341    0.9079   35.5080 H   0  0  0  0  0
   21.7062    1.5719   35.4031 H   0  0  0  0  0
   21.7227    3.1985   36.1444 H   0  0  0  0  0
   21.0477    3.2386   33.9409 H   0  0  0  0  0
  1  2  1  0  0  0
  1  3  1  0  0  0
  1  5  1  0  0  0
  1  6  1  0  0  0
  2  7  1  0  0  0
  3  4  1  0  0  0
  3  8  1  0  0  0
  3  9  1  0  0  0
  4 10  1  0  0  0
M  END
$$$$
