DMS_2_A_402
  -ISIS-            3D

 10  9  0  0  0  0  0  0  0  0  1 V2000
   -6.2200   -1.0450    6.3000 S   0  0  0  0  0
   -7.1020   -0.8570    7.4400 O   0  0  0  0  0
   -7.3040   -0.9400    4.9000 C   0  0  0  0  0
   -5.8790   -2.7770    6.2880 C   0  0  0  0  0
   -6.7575   -1.2346    3.9809 H   0  0  0  0  0
   -7.6589    0.1048    4.7863 H   0  0  0  0  0
   -8.1794   -1.6077    5.0367 H   0  0  0  0  0
   -5.3485   -3.0479    5.3524 H   0  0  0  0  0
   -6.8212   -3.3587    6.3570 H   0  0  0  0  0
   -5.2322   -3.0317    7.1524 H   0  0  0  0  0
  1  2  2  0  0  0
  1  3  1  0  0  0
  1  4  1  0  0  0
  3  5  1  0  0  0
  3  6  1  0  0  0
  3  7  1  0  0  0
  4  8  1  0  0  0
  4  9  1  0  0  0
  4 10  1  0  0  0
M  END
$$$$
