DMS_1_A_406
  -ISIS-            3D

 10  9  0  0  0  0  0  0  0  0  1 V2000
   25.2490   -4.0990   20.1250 S   0  0  0  0  0
   24.5470   -2.9260   19.5800 O   0  0  0  0  0
   24.9700   -4.0340   21.8700 C   0  0  0  0  0
   24.1950   -5.4580   19.7430 C   0  0  0  0  0
   25.3234   -4.9731   22.3427 H   0  0  0  0  0
   23.8904   -3.8968   22.0862 H   0  0  0  0  0
   25.5351   -3.1826   22.3014 H   0  0  0  0  0
   24.5588   -6.3722   20.2550 H   0  0  0  0  0
   24.2044   -5.6354   18.6480 H   0  0  0  0  0
   23.1543   -5.2465   20.0646 H   0  0  0  0  0
  1  2  2  0  0  0
  1  3  1  0  0  0
  1  4  1  0  0  0
  3  5  1  0  0  0
  3  6  1  0  0  0
  3  7  1  0  0  0
  4  8  1  0  0  0
  4  9  1  0  0  0
  4 10  1  0  0  0
M  END
$$$$
