DMS_1_B_707
  -ISIS-            3D

 10  9  0  0  0  0  0  0  0  0  1 V2000
    0.0610    0.0850   21.3430 S   0  0  0  0  0
   -1.1150   -0.6070   20.7290 O   0  0  0  0  0
    1.4570    0.0130   20.1860 C   0  0  0  0  0
   -0.2660    1.8720   21.3430 C   0  0  0  0  0
    2.3067    0.5980   20.5934 H   0  0  0  0  0
    1.1541    0.4306   19.2040 H   0  0  0  0  0
    1.7696   -1.0432   20.0557 H   0  0  0  0  0
    0.6266    2.4120   21.7197 H   0  0  0  0  0
   -1.1292    2.0856   22.0061 H   0  0  0  0  0
   -0.5001    2.2119   20.3133 H   0  0  0  0  0
  1  2  2  0  0  0
  1  3  1  0  0  0
  1  4  1  0  0  0
  3  5  1  0  0  0
  3  6  1  0  0  0
  3  7  1  0  0  0
  4  8  1  0  0  0
  4  9  1  0  0  0
  4 10  1  0  0  0
M  END
$$$$
