DMS_1_B_708
  -ISIS-            3D

 10  9  0  0  0  0  0  0  0  0  1 V2000
   12.1210    4.9690   -5.9790 S   0  0  0  0  0
   12.6720    6.2450   -6.5240 O   0  0  0  0  0
   11.6760    3.8670   -7.3540 C   0  0  0  0  0
   13.4450    3.9630   -5.2440 C   0  0  0  0  0
   11.3229    2.8952   -6.9525 H   0  0  0  0  0
   12.5580    3.7031   -8.0065 H   0  0  0  0  0
   10.8629    4.3336   -7.9468 H   0  0  0  0  0
   13.0307    2.9900   -4.9095 H   0  0  0  0  0
   13.8677    4.4994   -4.3700 H   0  0  0  0  0
   14.2465    3.7908   -5.9913 H   0  0  0  0  0
  1  2  2  0  0  0
  1  3  1  0  0  0
  1  4  1  0  0  0
  3  5  1  0  0  0
  3  6  1  0  0  0
  3  7  1  0  0  0
  4  8  1  0  0  0
  4  9  1  0  0  0
  4 10  1  0  0  0
M  END
$$$$
