DMS_1_A_509
  -ISIS-            3D

 10  9  0  0  0  0  0  0  0  0  1 V2000
   -0.9940   -2.5650   17.1820 S   0  0  0  0  0
   -0.8040   -4.0250   17.4460 O   0  0  0  0  0
   -2.4270   -2.3560   16.1040 C   0  0  0  0  0
    0.3180   -1.9080   16.1210 C   0  0  0  0  0
   -2.5595   -1.2808   15.8661 H   0  0  0  0  0
   -3.3337   -2.7288   16.6229 H   0  0  0  0  0
   -2.2794   -2.9289   15.1656 H   0  0  0  0  0
    0.1119   -0.8425   15.8921 H   0  0  0  0  0
    0.3651   -2.4896   15.1776 H   0  0  0  0  0
    1.2897   -1.9869   16.6500 H   0  0  0  0  0
  1  2  2  0  0  0
  1  3  1  0  0  0
  1  4  1  0  0  0
  3  5  1  0  0  0
  3  6  1  0  0  0
  3  7  1  0  0  0
  4  8  1  0  0  0
  4  9  1  0  0  0
  4 10  1  0  0  0
M  END
$$$$
