DMS_2_A_1002
  -ISIS-            3D

 10  9  0  0  0  0  0  0  0  0  1 V2000
   -7.0770  -28.1970  -21.4720 S   0  0  0  0  0
   -7.7990  -27.2510  -22.3160 O   0  0  0  0  0
   -5.7540  -28.8080  -22.4720 C   0  0  0  0  0
   -6.1630  -27.2610  -20.2990 C   0  0  0  0  0
   -5.0859  -29.4484  -21.8605 H   0  0  0  0  0
   -5.1693  -27.9661  -22.8962 H   0  0  0  0  0
   -6.1693  -29.4148  -23.3025 H   0  0  0  0  0
   -5.4935  -27.9313  -19.7219 H   0  0  0  0  0
   -6.8635  -26.7646  -19.5966 H   0  0  0  0  0
   -5.5556  -26.4864  -20.8104 H   0  0  0  0  0
  1  2  2  0  0  0
  1  3  1  0  0  0
  1  4  1  0  0  0
  3  5  1  0  0  0
  3  6  1  0  0  0
  3  7  1  0  0  0
  4  8  1  0  0  0
  4  9  1  0  0  0
  4 10  1  0  0  0
M  END
$$$$
