PGE_1_A_1315
  -ISIS-            3D

 24 23  0  0  0  0  0  0  0  0  1 V2000
   29.1840   31.1700  -27.6110 C   0  0  0  0  0
   28.7200   30.8370  -26.3090 O   0  0  0  0  0
   30.6270   30.8030  -27.8010 C   0  0  0  0  0
   31.4360   31.6300  -26.9740 O   0  0  0  0  0
   32.5840   30.9620  -26.4700 C   0  0  0  0  0
   33.7470   31.8900  -26.4960 C   0  0  0  0  0
   35.7530   34.8650  -29.4700 O   0  0  0  0  0
   34.9640   34.4530  -28.3660 C   0  0  0  0  0
   35.0970   32.9850  -28.1140 C   0  0  0  0  0
   33.8180   32.4610  -27.7880 O   0  0  0  0  0
   29.0255   32.2535  -27.7961 H   0  0  0  0  0
   28.5572   30.6292  -28.3506 H   0  0  0  0  0
   29.2961   31.2742  -25.6936 H   0  0  0  0  0
   30.9346   30.9373  -28.8590 H   0  0  0  0  0
   30.7583   29.7291  -27.5508 H   0  0  0  0  0
   32.8276   30.0735  -27.0906 H   0  0  0  0  0
   32.3800   30.5979  -25.4419 H   0  0  0  0  0
   34.6718   31.3243  -26.2560 H   0  0  0  0  0
   33.6353   32.6960  -25.7411 H   0  0  0  0  0
   35.5907   35.7857  -29.6280 H   0  0  0  0  0
   33.9043   34.7096  -28.5822 H   0  0  0  0  0
   35.2518   35.0297  -27.4616 H   0  0  0  0  0
   35.8537   32.7850  -27.3285 H   0  0  0  0  0
   35.4486   32.4675  -29.0309 H   0  0  0  0  0
  1  2  1  0  0  0
  1  3  1  0  0  0
  1 11  1  0  0  0
  1 12  1  0  0  0
  2 13  1  0  0  0
  3  4  1  0  0  0
  3 14  1  0  0  0
  3 15  1  0  0  0
  4  5  1  0  0  0
  5  6  1  0  0  0
  5 16  1  0  0  0
  5 17  1  0  0  0
  6 10  1  0  0  0
  6 18  1  0  0  0
  6 19  1  0  0  0
  7  8  1  0  0  0
  7 20  1  0  0  0
  8  9  1  0  0  0
  8 21  1  0  0  0
  8 22  1  0  0  0
  9 10  1  0  0  0
  9 23  1  0  0  0
  9 24  1  0  0  0
M  END
$$$$
