DMS_1_A_501
  -ISIS-            3D

 10  9  0  0  0  0  0  0  0  0  1 V2000
   13.8150   -2.5110   -6.4460 S   0  0  0  0  0
   14.7440   -2.2650   -7.6010 O   0  0  0  0  0
   12.9730   -1.0070   -5.9320 C   0  0  0  0  0
   12.4620   -3.6430   -6.9280 C   0  0  0  0  0
   12.3016   -1.2317   -5.0782 H   0  0  0  0  0
   12.3774   -0.6045   -6.7767 H   0  0  0  0  0
   13.7246   -0.2538   -5.6188 H   0  0  0  0  0
   11.7950   -3.8109   -6.0578 H   0  0  0  0  0
   12.8945   -4.6111   -7.2536 H   0  0  0  0  0
   11.8830   -3.1959   -7.7618 H   0  0  0  0  0
  1  2  2  0  0  0
  1  3  1  0  0  0
  1  4  1  0  0  0
  3  5  1  0  0  0
  3  6  1  0  0  0
  3  7  1  0  0  0
  4  8  1  0  0  0
  4  9  1  0  0  0
  4 10  1  0  0  0
M  END
$$$$
