DMS_1_B_402
  -ISIS-            3D

 10  9  0  0  0  0  0  0  0  0  1 V2000
   13.1680  -11.0180    7.8850 S   0  0  0  0  0
   12.1040  -10.1780    8.3670 O   0  0  0  0  0
   13.7820  -11.8200    9.3450 C   0  0  0  0  0
   12.4140  -12.4180    7.1290 C   0  0  0  0  0
   14.5188  -12.5999    9.0636 H   0  0  0  0  0
   12.9500  -12.2866    9.9116 H   0  0  0  0  0
   14.2844  -11.0717    9.9917 H   0  0  0  0  0
   13.1856  -13.1773    6.8873 H   0  0  0  0  0
   11.9161  -12.1045    6.1886 H   0  0  0  0  0
   11.6566  -12.8652    7.8052 H   0  0  0  0  0
  1  2  2  0  0  0
  1  3  1  0  0  0
  1  4  1  0  0  0
  3  5  1  0  0  0
  3  6  1  0  0  0
  3  7  1  0  0  0
  4  8  1  0  0  0
  4  9  1  0  0  0
  4 10  1  0  0  0
M  END
$$$$
