DMS_1_A_403
  -ISIS-            3D

 10  9  0  0  0  0  0  0  0  0  1 V2000
    6.1520   -1.0130   -6.3380 S   0  0  0  0  0
    7.1050   -0.7260   -7.4510 O   0  0  0  0  0
    7.0740   -0.8020   -4.8110 C   0  0  0  0  0
    5.9390   -2.7630   -6.2490 C   0  0  0  0  0
    6.4503   -1.1178   -3.9497 H   0  0  0  0  0
    7.3393    0.2681   -4.6899 H   0  0  0  0  0
    8.0041   -1.4056   -4.8374 H   0  0  0  0  0
    5.3419   -3.0254   -5.3515 H   0  0  0  0  0
    6.9238   -3.2706   -6.1986 H   0  0  0  0  0
    5.3990   -3.1135   -7.1523 H   0  0  0  0  0
  1  2  2  0  0  0
  1  3  1  0  0  0
  1  4  1  0  0  0
  3  5  1  0  0  0
  3  6  1  0  0  0
  3  7  1  0  0  0
  4  8  1  0  0  0
  4  9  1  0  0  0
  4 10  1  0  0  0
M  END
$$$$
