EDO_1_H_407
  -ISIS-            3D

 10  9  0  0  0  0  0  0  0  0  1 V2000
   -7.7350   -5.2590  -11.1710 C   0  0  0  0  0
   -7.7920   -6.3180  -12.1330 O   0  0  0  0  0
   -6.5520   -5.4760  -10.2430 C   0  0  0  0  0
   -5.3280   -5.0740  -10.8720 O   0  0  0  0  0
   -8.6808   -5.2676  -10.5900 H   0  0  0  0  0
   -7.6757   -4.2761  -11.6832 H   0  0  0  0  0
   -6.9796   -6.2873  -12.6231 H   0  0  0  0  0
   -6.4868   -6.5389   -9.9283 H   0  0  0  0  0
   -6.6910   -4.8720   -9.3208 H   0  0  0  0  0
   -4.6188   -5.2192  -10.2600 H   0  0  0  0  0
  1  2  1  0  0  0
  1  3  1  0  0  0
  1  5  1  0  0  0
  1  6  1  0  0  0
  2  7  1  0  0  0
  3  4  1  0  0  0
  3  8  1  0  0  0
  3  9  1  0  0  0
  4 10  1  0  0  0
M  END
$$$$
