EDO_1_L_302
  -ISIS-            3D

 10  9  0  0  0  0  0  0  0  0  1 V2000
  -21.2280   -3.6560  -22.3420 C   0  0  0  0  0
  -22.3390   -4.3590  -21.7780 O   0  0  0  0  0
  -21.4010   -3.5340  -23.8520 C   0  0  0  0  0
  -21.0550   -4.7750  -24.4740 O   0  0  0  0  0
  -20.2735   -4.1581  -22.0789 H   0  0  0  0  0
  -21.1956   -2.6437  -21.8877 H   0  0  0  0  0
  -22.1960   -5.2848  -21.9272 H   0  0  0  0  0
  -20.7191   -2.7505  -24.2436 H   0  0  0  0  0
  -22.4337   -3.2289  -24.1223 H   0  0  0  0  0
  -21.8527   -5.2714  -24.6022 H   0  0  0  0  0
  1  2  1  0  0  0
  1  3  1  0  0  0
  1  5  1  0  0  0
  1  6  1  0  0  0
  2  7  1  0  0  0
  3  4  1  0  0  0
  3  8  1  0  0  0
  3  9  1  0  0  0
  4 10  1  0  0  0
M  END
$$$$
