DMS_2_A_401
  -ISIS-            3D

 10  9  0  0  0  0  0  0  0  0  1 V2000
   -7.0800  -28.2350  -22.3070 S   0  0  0  0  0
   -7.6350  -27.1210  -23.1420 O   0  0  0  0  0
   -6.0340  -27.4510  -21.1050 C   0  0  0  0  0
   -5.8170  -28.9700  -23.3100 C   0  0  0  0  0
   -5.4594  -28.2198  -20.5488 H   0  0  0  0  0
   -6.6613  -26.8839  -20.3872 H   0  0  0  0  0
   -5.3306  -26.7515  -21.6014 H   0  0  0  0  0
   -5.2441  -29.7079  -22.7118 H   0  0  0  0  0
   -5.1265  -28.1922  -23.6956 H   0  0  0  0  0
   -6.2872  -29.4930  -24.1678 H   0  0  0  0  0
  1  2  2  0  0  0
  1  3  1  0  0  0
  1  4  1  0  0  0
  3  5  1  0  0  0
  3  6  1  0  0  0
  3  7  1  0  0  0
  4  8  1  0  0  0
  4  9  1  0  0  0
  4 10  1  0  0  0
M  END
$$$$
