EDO_1_A_407
  -ISIS-            3D

 10  9  0  0  0  0  0  0  0  0  1 V2000
   18.0780   22.7240   30.6590 C   0  0  0  0  0
   19.2390   22.7620   31.4860 O   0  0  0  0  0
   16.8950   22.1750   31.4510 C   0  0  0  0  0
   16.2870   21.0900   30.7390 O   0  0  0  0  0
   18.2826   22.1105   29.7564 H   0  0  0  0  0
   17.8592   23.7518   30.3027 H   0  0  0  0  0
   19.6124   21.8906   31.5097 H   0  0  0  0  0
   16.1434   22.9744   31.6227 H   0  0  0  0  0
   17.2187   21.8142   32.4500 H   0  0  0  0  0
   15.5354   20.7938   31.2352 H   0  0  0  0  0
  1  2  1  0  0  0
  1  3  1  0  0  0
  1  5  1  0  0  0
  1  6  1  0  0  0
  2  7  1  0  0  0
  3  4  1  0  0  0
  3  8  1  0  0  0
  3  9  1  0  0  0
  4 10  1  0  0  0
M  END
$$$$
