DMS_1_A_405
  -ISIS-            3D

 10  9  0  0  0  0  0  0  0  0  1 V2000
   11.6270    3.1720   33.2570 S   0  0  0  0  0
   12.6230    3.5270   32.2010 O   0  0  0  0  0
   10.0900    4.0900   32.9600 C   0  0  0  0  0
   12.1290    3.9040   34.8390 C   0  0  0  0  0
    9.3699    3.8824   33.7776 H   0  0  0  0  0
    9.6506    3.7646   31.9949 H   0  0  0  0  0
   10.3033    5.1778   32.9184 H   0  0  0  0  0
   11.3534    3.7000   35.6052 H   0  0  0  0  0
   12.2588    4.9995   34.7225 H   0  0  0  0  0
   13.0893    3.4526   35.1621 H   0  0  0  0  0
  1  2  2  0  0  0
  1  3  1  0  0  0
  1  4  1  0  0  0
  3  5  1  0  0  0
  3  6  1  0  0  0
  3  7  1  0  0  0
  4  8  1  0  0  0
  4  9  1  0  0  0
  4 10  1  0  0  0
M  END
$$$$
