EDO_1_L_302
  -ISIS-            3D

 10  9  0  0  0  0  0  0  0  0  1 V2000
  -19.8540  -11.4310   19.6070 C   0  0  0  0  0
  -21.1410  -10.8590   19.2840 O   0  0  0  0  0
  -19.1060  -10.7230   20.7310 C   0  0  0  0  0
  -17.6980  -10.8410   20.4610 O   0  0  0  0  0
  -19.2472  -11.3947   18.6775 H   0  0  0  0  0
  -19.9751  -12.5090   19.8459 H   0  0  0  0  0
  -21.7558  -11.1179   19.9578 H   0  0  0  0  0
  -19.3392  -11.1773   21.7154 H   0  0  0  0  0
  -19.3862   -9.6497   20.7821 H   0  0  0  0  0
  -17.4507  -10.1551   19.8549 H   0  0  0  0  0
  1  2  1  0  0  0
  1  3  1  0  0  0
  1  5  1  0  0  0
  1  6  1  0  0  0
  2  7  1  0  0  0
  3  4  1  0  0  0
  3  8  1  0  0  0
  3  9  1  0  0  0
  4 10  1  0  0  0
M  END
$$$$
