EDO_1_A_601
  -ISIS-            3D

 10  9  0  0  0  0  0  0  0  0  1 V2000
   -3.6750  -16.0570   19.5760 C   0  0  0  0  0
   -2.6180  -15.9190   20.5390 O   0  0  0  0  0
   -3.4970  -17.3800   18.8340 C   0  0  0  0  0
   -3.8750  -18.4640   19.7120 O   0  0  0  0  0
   -3.6493  -15.2049   18.8638 H   0  0  0  0  0
   -4.6549  -16.0197   20.0947 H   0  0  0  0  0
   -1.9287  -15.3906   20.1588 H   0  0  0  0  0
   -2.4521  -17.5168   18.4862 H   0  0  0  0  0
   -4.1507  -17.4097   17.9379 H   0  0  0  0  0
   -3.3779  -18.3495   20.5130 H   0  0  0  0  0
  1  2  1  0  0  0
  1  3  1  0  0  0
  1  5  1  0  0  0
  1  6  1  0  0  0
  2  7  1  0  0  0
  3  4  1  0  0  0
  3  8  1  0  0  0
  3  9  1  0  0  0
  4 10  1  0  0  0
M  END
$$$$
