EDO_1_N_303
  -ISIS-            3D

 10  9  0  0  0  0  0  0  0  0  1 V2000
   -4.0960  -59.5390    0.3760 C   0  0  0  0  0
   -3.6660  -58.9040    1.5900 O   0  0  0  0  0
   -3.3410  -58.9340   -0.8150 C   0  0  0  0  0
   -1.9320  -59.0930   -0.6160 O   0  0  0  0  0
   -5.1903  -59.3990    0.2518 H   0  0  0  0  0
   -3.9012  -60.6310    0.4344 H   0  0  0  0  0
   -3.9834  -59.4162    2.3222 H   0  0  0  0  0
   -3.5873  -57.8553   -0.9130 H   0  0  0  0  0
   -3.6419  -59.4350   -1.7589 H   0  0  0  0  0
   -1.4786  -58.5526   -1.2497 H   0  0  0  0  0
  1  2  1  0  0  0
  1  3  1  0  0  0
  1  5  1  0  0  0
  1  6  1  0  0  0
  2  7  1  0  0  0
  3  4  1  0  0  0
  3  8  1  0  0  0
  3  9  1  0  0  0
  4 10  1  0  0  0
M  END
$$$$
