EDO_1_A_304
  -ISIS-            3D

 10  9  0  0  0  0  0  0  0  0  1 V2000
  -66.1790   61.6790   -5.8550 C   0  0  0  0  0
  -65.0280   60.8810   -6.1030 O   0  0  0  0  0
  -66.6890   61.6500   -4.4410 C   0  0  0  0  0
  -68.0360   62.0620   -4.2890 O   0  0  0  0  0
  -66.9789   61.3121   -6.5325 H   0  0  0  0  0
  -65.9783   62.7261   -6.1673 H   0  0  0  0  0
  -64.2779   61.3073   -5.7099 H   0  0  0  0  0
  -66.0498   62.2934   -3.8010 H   0  0  0  0  0
  -66.5894   60.6210   -4.0327 H   0  0  0  0  0
  -68.6009   61.3792   -4.6262 H   0  0  0  0  0
  1  2  1  0  0  0
  1  3  1  0  0  0
  1  5  1  0  0  0
  1  6  1  0  0  0
  2  7  1  0  0  0
  3  4  1  0  0  0
  3  8  1  0  0  0
  3  9  1  0  0  0
  4 10  1  0  0  0
M  END
$$$$
