DMS_1_A_504
  -ISIS-            3D

 10  9  0  0  0  0  0  0  0  0  1 V2000
    2.4070  -19.0510    8.3350 S   0  0  0  0  0
    1.2780  -18.2780    8.9430 O   0  0  0  0  0
    3.9730  -18.5590    9.1080 C   0  0  0  0  0
    2.3580  -20.7780    8.8930 C   0  0  0  0  0
    4.7993  -19.1769    8.7009 H   0  0  0  0  0
    3.9109  -18.6955   10.2071 H   0  0  0  0  0
    4.1711  -17.4913    8.8819 H   0  0  0  0  0
    3.2359  -21.3240    8.4911 H   0  0  0  0  0
    1.4294  -21.2552    8.5186 H   0  0  0  0  0
    2.3690  -20.8170   10.0016 H   0  0  0  0  0
  1  2  2  0  0  0
  1  3  1  0  0  0
  1  4  1  0  0  0
  3  5  1  0  0  0
  3  6  1  0  0  0
  3  7  1  0  0  0
  4  8  1  0  0  0
  4  9  1  0  0  0
  4 10  1  0  0  0
M  END
$$$$
