DMS_2_A_503
  -ISIS-            3D

 10  9  0  0  0  0  0  0  0  0  1 V2000
   -6.1200   -1.0750    6.1590 S   0  0  0  0  0
   -6.9330   -0.7680    7.3740 O   0  0  0  0  0
   -5.6010   -2.8150    6.1700 C   0  0  0  0  0
   -7.1650   -1.0430    4.6750 C   0  0  0  0  0
   -5.0361   -3.0392    5.2422 H   0  0  0  0  0
   -6.4926   -3.4721    6.2317 H   0  0  0  0  0
   -4.9486   -2.9962    7.0486 H   0  0  0  0  0
   -6.5575   -1.3153    3.7879 H   0  0  0  0  0
   -7.5747   -0.0213    4.5384 H   0  0  0  0  0
   -8.0013   -1.7627    4.7894 H   0  0  0  0  0
  1  2  2  0  0  0
  1  3  1  0  0  0
  1  4  1  0  0  0
  3  5  1  0  0  0
  3  6  1  0  0  0
  3  7  1  0  0  0
  4  8  1  0  0  0
  4  9  1  0  0  0
  4 10  1  0  0  0
M  END
$$$$
