DMS_1_A_202
  -ISIS-            3D

 10  9  0  0  0  0  0  0  0  0  1 V2000
   -0.9100    9.4730   -7.2470 S   0  0  0  0  0
    0.0430    8.3900   -7.0420 O   0  0  0  0  0
   -2.4370    8.7020   -7.1040 C   0  0  0  0  0
   -1.0000    9.6600   -8.9780 C   0  0  0  0  0
   -3.2472    9.3890   -7.4235 H   0  0  0  0  0
   -2.6140    8.4301   -6.0431 H   0  0  0  0  0
   -2.4814    7.7764   -7.7142 H   0  0  0  0  0
   -1.8421   10.3296   -9.2484 H   0  0  0  0  0
   -1.1332    8.6799   -9.4807 H   0  0  0  0  0
   -0.0590   10.1187   -9.3453 H   0  0  0  0  0
  1  2  2  0  0  0
  1  3  1  0  0  0
  1  4  1  0  0  0
  3  5  1  0  0  0
  3  6  1  0  0  0
  3  7  1  0  0  0
  4  8  1  0  0  0
  4  9  1  0  0  0
  4 10  1  0  0  0
M  END
$$$$
