DMS_2_A_402
  -ISIS-            3D

 10  9  0  0  0  0  0  0  0  0  1 V2000
   -6.2860   -1.0030    6.2810 S   0  0  0  0  0
   -7.2850   -0.7780    7.3620 O   0  0  0  0  0
   -7.1960   -0.9350    4.7300 C   0  0  0  0  0
   -5.8790   -2.7210    6.2770 C   0  0  0  0  0
   -6.5254   -1.2117    3.8908 H   0  0  0  0  0
   -7.5677    0.0976    4.5695 H   0  0  0  0  0
   -8.0585   -1.6317    4.7614 H   0  0  0  0  0
   -5.2364   -2.9536    5.4031 H   0  0  0  0  0
   -6.8009   -3.3358    6.2309 H   0  0  0  0  0
   -5.3250   -2.9698    7.2052 H   0  0  0  0  0
  1  2  2  0  0  0
  1  3  1  0  0  0
  1  4  1  0  0  0
  3  5  1  0  0  0
  3  6  1  0  0  0
  3  7  1  0  0  0
  4  8  1  0  0  0
  4  9  1  0  0  0
  4 10  1  0  0  0
M  END
$$$$
