DMS_2_A_401
  -ISIS-            3D

 10  9  0  0  0  0  0  0  0  0  1 V2000
   -7.0340  -28.2930  -21.5660 S   0  0  0  0  0
   -7.8230  -27.3220  -22.3510 O   0  0  0  0  0
   -5.7500  -28.8560  -22.6620 C   0  0  0  0  0
   -6.0490  -27.3730  -20.4310 C   0  0  0  0  0
   -5.0375  -29.4990  -22.1059 H   0  0  0  0  0
   -5.2065  -27.9918  -23.0954 H   0  0  0  0  0
   -6.2020  -29.4487  -23.4834 H   0  0  0  0  0
   -5.3357  -28.0496  -19.9169 H   0  0  0  0  0
   -6.7059  -26.9021  -19.6713 H   0  0  0  0  0
   -5.4857  -26.5792  -20.9626 H   0  0  0  0  0
  1  2  2  0  0  0
  1  3  1  0  0  0
  1  4  1  0  0  0
  3  5  1  0  0  0
  3  6  1  0  0  0
  3  7  1  0  0  0
  4  8  1  0  0  0
  4  9  1  0  0  0
  4 10  1  0  0  0
M  END
$$$$
