0LO_1_A_201
  -ISIS-            3D

 23 24  0  0  0  0  0  0  0  0  1 V2000
    9.6340    5.7170   17.4350 C   0  0  0  0  0
    8.9590    6.8310   17.8910 C   0  0  0  0  0
    8.0020    6.7050   18.8720 C   0  0  0  0  0
    7.7220    5.4610   19.4030 C   0  0  0  0  0
    8.3890    4.3470   18.9460 C   0  0  0  0  0
    9.3580    4.4660   17.9580 C   0  0  0  0  0
   10.0960    3.2230   17.4410 C   0  0  0  0  0
   10.5660    2.2290   18.2890 C   0  0  0  0  0
   10.2940    3.0600   16.0830 C   0  0  0  0  0
   10.9090    2.0170   15.5860 N   0  0  0  0  0
   11.3700    1.0740   16.3580 C   0  0  0  0  0
   11.2220    1.1390   17.7320 C   0  0  0  0  0
   11.7510    0.0100   18.6200 C   0  0  0  0  0
   11.8940    0.1780   19.8500 O   0  0  0  0  0
   12.0240   -1.1050   18.1290 O   0  0  0  0  0
   10.4009    5.8374   16.6513 H   0  0  0  0  0
    9.1868    7.8246   17.4684 H   0  0  0  0  0
    7.4614    7.5955   19.2356 H   0  0  0  0  0
    6.9574    5.3602   20.1923 H   0  0  0  0  0
    8.1453    3.3583   19.3700 H   0  0  0  0  0
   10.4249    2.3107   19.3786 H   0  0  0  0  0
    9.9238    3.8164   15.3716 H   0  0  0  0  0
   11.8794    0.2200   15.8819 H   0  0  0  0  0
  1  2  2  0  0  0
  1  6  1  0  0  0
  1 16  1  0  0  0
  2  3  1  0  0  0
  2 17  1  0  0  0
  3  4  2  0  0  0
  3 18  1  0  0  0
  4  5  1  0  0  0
  4 19  1  0  0  0
  5  6  2  0  0  0
  5 20  1  0  0  0
  6  7  1  0  0  0
  7  8  2  0  0  0
  7  9  1  0  0  0
  8 12  1  0  0  0
  8 21  1  0  0  0
  9 10  2  0  0  0
  9 22  1  0  0  0
 10 11  1  0  0  0
 11 12  2  0  0  0
 11 23  1  0  0  0
 12 13  1  0  0  0
 13 14  2  0  0  0
 13 15  2  0  0  0
M  END
$$$$
