DMS_1_A_403
  -ISIS-            3D

 10  9  0  0  0  0  0  0  0  0  1 V2000
    6.2860   -0.9810   -6.3170 S   0  0  0  0  0
    7.2760   -0.7390   -7.4090 O   0  0  0  0  0
    7.1630   -1.0450   -4.7260 C   0  0  0  0  0
    5.6450   -2.6830   -6.3750 C   0  0  0  0  0
    6.4424   -1.2717   -3.9138 H   0  0  0  0  0
    7.6365   -0.0613   -4.5301 H   0  0  0  0  0
    7.9463   -1.8298   -4.7596 H   0  0  0  0  0
    4.9665   -2.8535   -5.5143 H   0  0  0  0  0
    6.4877   -3.4033   -6.3350 H   0  0  0  0  0
    5.0817   -2.8284   -7.3194 H   0  0  0  0  0
  1  2  2  0  0  0
  1  3  1  0  0  0
  1  4  1  0  0  0
  3  5  1  0  0  0
  3  6  1  0  0  0
  3  7  1  0  0  0
  4  8  1  0  0  0
  4  9  1  0  0  0
  4 10  1  0  0  0
M  END
$$$$
