DMS_1_A_404
  -ISIS-            3D

 10  9  0  0  0  0  0  0  0  0  1 V2000
    6.0840    0.2210   18.3140 S   0  0  0  0  0
    7.1170    0.8870   17.4590 O   0  0  0  0  0
    4.9890    1.4870   19.0200 C   0  0  0  0  0
    6.8540   -0.4130   19.8300 C   0  0  0  0  0
    4.2602    1.0070   19.7046 H   0  0  0  0  0
    4.4409    1.9944   18.2000 H   0  0  0  0  0
    5.5891    2.2342   19.5786 H   0  0  0  0  0
    6.0737   -0.8428   20.4907 H   0  0  0  0  0
    7.3780    0.4097   20.3582 H   0  0  0  0  0
    7.5850   -1.2041   19.5651 H   0  0  0  0  0
  1  2  2  0  0  0
  1  3  1  0  0  0
  1  4  1  0  0  0
  3  5  1  0  0  0
  3  6  1  0  0  0
  3  7  1  0  0  0
  4  8  1  0  0  0
  4  9  1  0  0  0
  4 10  1  0  0  0
M  END
$$$$
