DMS_1_A_405
  -ISIS-            3D

 10  9  0  0  0  0  0  0  0  0  1 V2000
    2.3750  -18.7890    8.0310 S   0  0  0  0  0
    2.0780  -20.2250    7.7290 O   0  0  0  0  0
    3.9050  -18.7160    9.0100 C   0  0  0  0  0
    1.1840  -18.1750    9.2590 C   0  0  0  0  0
    4.1031  -17.6668    9.3103 H   0  0  0  0  0
    4.7505  -19.0859    8.3946 H   0  0  0  0  0
    3.8035  -19.3498    9.9147 H   0  0  0  0  0
    1.4521  -17.1387    9.5495 H   0  0  0  0  0
    1.1969  -18.8287   10.1552 H   0  0  0  0  0
    0.1674  -18.1791    8.8154 H   0  0  0  0  0
  1  2  2  0  0  0
  1  3  1  0  0  0
  1  4  1  0  0  0
  3  5  1  0  0  0
  3  6  1  0  0  0
  3  7  1  0  0  0
  4  8  1  0  0  0
  4  9  1  0  0  0
  4 10  1  0  0  0
M  END
$$$$
