DMS_2_A_401
  -ISIS-            3D

 10  9  0  0  0  0  0  0  0  0  1 V2000
   -6.9840  -27.9650  -21.4880 S   0  0  0  0  0
   -7.7060  -27.0540  -22.3800 O   0  0  0  0  0
   -5.7220  -28.7290  -22.4810 C   0  0  0  0  0
   -5.9500  -26.9420  -20.4870 C   0  0  0  0  0
   -5.0456  -29.3252  -21.8349 H   0  0  0  0  0
   -5.1339  -27.9577  -23.0192 H   0  0  0  0  0
   -6.1969  -29.4042  -23.2220 H   0  0  0  0  0
   -5.2677  -27.5739  -19.8822 H   0  0  0  0  0
   -6.5809  -26.3402  -19.8012 H   0  0  0  0  0
   -5.3515  -26.2566  -21.1214 H   0  0  0  0  0
  1  2  2  0  0  0
  1  3  1  0  0  0
  1  4  1  0  0  0
  3  5  1  0  0  0
  3  6  1  0  0  0
  3  7  1  0  0  0
  4  8  1  0  0  0
  4  9  1  0  0  0
  4 10  1  0  0  0
M  END
$$$$
