AQO_1_A_201
  -ISIS-            3D

 19 20  0  0  0  0  0  0  0  0  1 V2000
   12.7530   23.5230    8.0340 C   0  0  0  0  0
   11.9700   22.3760    7.8970 C   0  0  0  0  0
   10.9990   22.0990    8.8430 C   0  0  0  0  0
   10.8060   22.9700    9.9360 C   0  0  0  0  0
    9.7560   22.6340   10.9300 N   0  0  0  0  0
    9.5290   23.5160   12.0680 C   0  0  0  0  0
    8.4970   23.1790   13.0230 N   0  0  0  0  0
   10.3370   24.6990   12.2330 N   0  0  0  0  0
   11.3480   25.0270   11.2750 C   0  0  0  0  0
   11.9970   26.0100   11.4330 O   0  0  0  0  0
   11.5790   24.0980   10.0790 C   0  0  0  0  0
   12.5650   24.3770    9.1100 C   0  0  0  0  0
   13.5271   23.7507    7.2817 H   0  0  0  0  0
   12.1240   21.6975    7.0412 H   0  0  0  0  0
   10.3725   21.1969    8.7466 H   0  0  0  0  0
    8.3571   23.8117   13.8203 H   0  0  0  0  0
    7.9829   22.3152   12.8137 H   0  0  0  0  0
   13.1909   25.2795    9.2073 H   0  0  0  0  0
   10.1417   25.2773   13.0572 H   0  0  0  0  0
  1  2  2  0  0  0
  1 12  1  0  0  0
  1 13  1  0  0  0
  2  3  1  0  0  0
  2 14  1  0  0  0
  3  4  2  0  0  0
  3 15  1  0  0  0
  4  5  1  0  0  0
  4 11  1  0  0  0
  5  6  1  0  0  0
  6  7  1  0  0  0
  6  8  1  0  0  0
  7 16  1  0  0  0
  7 17  1  0  0  0
  8  9  1  0  0  0
  8 19  1  0  0  0
  9 10  2  0  0  0
  9 11  1  0  0  0
 11 12  2  0  0  0
 12 18  1  0  0  0
M  END
$$$$
