FHB_1_A_201
  -ISIS-            3D

 15 15  0  0  0  0  0  0  0  0  1 V2000
  -47.3890  -29.2080    4.0100 C   0  0  0  0  0
  -48.4700  -29.0950    3.2040 C   0  0  0  0  0
  -49.7300  -28.9980    3.7300 C   0  0  0  0  0
  -50.7860  -28.8470    2.8970 F   0  0  0  0  0
  -49.9400  -29.0280    5.0770 C   0  0  0  0  0
  -51.2620  -28.9510    5.4790 O   0  0  0  0  0
  -48.8410  -29.1350    5.9200 C   0  0  0  0  0
  -47.5500  -29.2170    5.3720 C   0  0  0  0  0
  -46.0450  -29.3450    3.2940 C   0  0  0  0  0
  -46.0520  -29.5160    2.0900 O   0  0  0  0  0
  -44.9550  -29.4140    3.8850 O   0  0  0  0  0
  -48.3661  -29.0735    2.1093 H   0  0  0  0  0
  -51.8585  -28.8789    4.7459 H   0  0  0  0  0
  -48.9863  -29.1560    7.0123 H   0  0  0  0  0
  -46.6775  -29.3000    6.0410 H   0  0  0  0  0
  1  2  2  0  0  0
  1  8  1  0  0  0
  1  9  1  0  0  0
  2  3  1  0  0  0
  2 12  1  0  0  0
  3  4  1  0  0  0
  3  5  2  0  0  0
  5  6  1  0  0  0
  5  7  1  0  0  0
  6 13  1  0  0  0
  7  8  2  0  0  0
  7 14  1  0  0  0
  8 15  1  0  0  0
  9 10  2  0  0  0
  9 11  2  0  0  0
M  END
$$$$
