DMS_2_A_401
  -ISIS-            3D

 10  9  0  0  0  0  0  0  0  0  1 V2000
  -26.2520   31.8400   39.5210 S   0  0  0  0  0
  -25.8930   33.0410   40.3330 O   0  0  0  0  0
  -28.0310   31.7870   39.2070 C   0  0  0  0  0
  -25.6250   32.0510   37.8380 C   0  0  0  0  0
  -28.2674   30.9229   38.5533 H   0  0  0  0  0
  -28.3546   32.7264   38.7141 H   0  0  0  0  0
  -28.5687   31.6737   40.1705 H   0  0  0  0  0
  -25.9276   31.1830   37.2173 H   0  0  0  0  0
  -24.5178   32.1117   37.8653 H   0  0  0  0  0
  -26.0334   32.9838   37.3978 H   0  0  0  0  0
  1  2  2  0  0  0
  1  3  1  0  0  0
  1  4  1  0  0  0
  3  5  1  0  0  0
  3  6  1  0  0  0
  3  7  1  0  0  0
  4  8  1  0  0  0
  4  9  1  0  0  0
  4 10  1  0  0  0
M  END
$$$$
