DMS_2_A_404
  -ISIS-            3D

 10  9  0  0  0  0  0  0  0  0  1 V2000
  -12.3060   14.3360   46.4470 S   0  0  0  0  0
  -12.3290   13.1400   47.3560 O   0  0  0  0  0
  -13.1780   13.7790   44.9460 C   0  0  0  0  0
  -13.3620   15.6390   47.1760 C   0  0  0  0  0
  -13.2776   14.6311   44.2430 H   0  0  0  0  0
  -14.1854   13.4017   45.2169 H   0  0  0  0  0
  -12.5952   12.9688   44.4620 H   0  0  0  0  0
  -13.4472   16.4836   46.4621 H   0  0  0  0  0
  -12.9015   15.9973   48.1193 H   0  0  0  0  0
  -14.3698   15.2264   47.3874 H   0  0  0  0  0
  1  2  2  0  0  0
  1  3  1  0  0  0
  1  4  1  0  0  0
  3  5  1  0  0  0
  3  6  1  0  0  0
  3  7  1  0  0  0
  4  8  1  0  0  0
  4  9  1  0  0  0
  4 10  1  0  0  0
M  END
$$$$
