EDO_1_C_304
  -ISIS-            3D

 10  9  0  0  0  0  0  0  0  0  1 V2000
   31.1430    2.7730   40.7960 C   0  0  0  0  0
   30.2740    3.1700   41.8610 O   0  0  0  0  0
   31.0030    1.2720   40.6250 C   0  0  0  0  0
   29.6050    0.9690   40.4080 O   0  0  0  0  0
   32.1937    3.0553   41.0187 H   0  0  0  0  0
   30.8450    3.3035   39.8681 H   0  0  0  0  0
   30.7966    3.3243   42.6368 H   0  0  0  0  0
   31.3647    0.7300   41.5235 H   0  0  0  0  0
   31.5933    0.9144   39.7569 H   0  0  0  0  0
   29.1166    1.5017   41.0259 H   0  0  0  0  0
  1  2  1  0  0  0
  1  3  1  0  0  0
  1  5  1  0  0  0
  1  6  1  0  0  0
  2  7  1  0  0  0
  3  4  1  0  0  0
  3  8  1  0  0  0
  3  9  1  0  0  0
  4 10  1  0  0  0
M  END
$$$$
