EDO_1_C_301
  -ISIS-            3D

 10  9  0  0  0  0  0  0  0  0  1 V2000
   12.6520    3.7640   35.2460 C   0  0  0  0  0
   14.0180    4.1170   35.0200 O   0  0  0  0  0
   12.6170    2.2740   35.5730 C   0  0  0  0  0
   13.0610    2.0390   36.9270 O   0  0  0  0  0
   12.0468    3.9859   34.3416 H   0  0  0  0  0
   12.2411    4.3694   36.0795 H   0  0  0  0  0
   14.1957    4.0674   34.0899 H   0  0  0  0  0
   13.2375    1.6869   34.8642 H   0  0  0  0  0
   11.5782    1.8939   35.4812 H   0  0  0  0  0
   13.9099    2.4562   37.0092 H   0  0  0  0  0
  1  2  1  0  0  0
  1  3  1  0  0  0
  1  5  1  0  0  0
  1  6  1  0  0  0
  2  7  1  0  0  0
  3  4  1  0  0  0
  3  8  1  0  0  0
  3  9  1  0  0  0
  4 10  1  0  0  0
M  END
$$$$
