EDO_1_L_401
  -ISIS-            3D

 10  9  0  0  0  0  0  0  0  0  1 V2000
   -6.9260    0.8080   17.7010 C   0  0  0  0  0
   -7.3760   -0.5230   18.0140 O   0  0  0  0  0
   -7.9860    1.5700   16.9310 C   0  0  0  0  0
   -8.1910    0.8690   15.6950 O   0  0  0  0  0
   -5.9870    0.7566   17.1094 H   0  0  0  0  0
   -6.6879    1.3399   18.6463 H   0  0  0  0  0
   -6.6234   -1.0368   18.2757 H   0  0  0  0  0
   -7.6557    2.6088   16.7216 H   0  0  0  0  0
   -8.9335    1.6179   17.5079 H   0  0  0  0  0
   -8.9869    1.1964   15.2971 H   0  0  0  0  0
  1  2  1  0  0  0
  1  3  1  0  0  0
  1  5  1  0  0  0
  1  6  1  0  0  0
  2  7  1  0  0  0
  3  4  1  0  0  0
  3  8  1  0  0  0
  3  9  1  0  0  0
  4 10  1  0  0  0
M  END
$$$$
