DMS_2_A_1005
  -ISIS-            3D

 10  9  0  0  0  0  0  0  0  0  1 V2000
   -5.4640    0.4620  -17.9580 S   0  0  0  0  0
   -4.8460    1.5650  -18.7460 O   0  0  0  0  0
   -6.3330   -0.4450  -19.1810 C   0  0  0  0  0
   -6.8480    1.1730  -17.2020 C   0  0  0  0  0
   -6.9865   -1.2014  -18.6997 H   0  0  0  0  0
   -5.6062   -0.9718  -19.8332 H   0  0  0  0  0
   -6.9517    0.2284  -19.8078 H   0  0  0  0  0
   -7.4840    0.3839  -16.7518 H   0  0  0  0  0
   -7.4471    1.7522  -17.9342 H   0  0  0  0  0
   -6.5155    1.8581  -16.3950 H   0  0  0  0  0
  1  2  2  0  0  0
  1  3  1  0  0  0
  1  4  1  0  0  0
  3  5  1  0  0  0
  3  6  1  0  0  0
  3  7  1  0  0  0
  4  8  1  0  0  0
  4  9  1  0  0  0
  4 10  1  0  0  0
M  END
$$$$
