DMS_1_A_403
  -ISIS-            3D

 10  9  0  0  0  0  0  0  0  0  1 V2000
  -24.6440   -8.9050   37.9720 S   0  0  0  0  0
  -25.9130   -8.1320   38.1390 O   0  0  0  0  0
  -25.0320  -10.6730   37.8520 C   0  0  0  0  0
  -23.7090   -8.8860   39.5270 C   0  0  0  0  0
  -24.0904  -11.2563   37.7931 H   0  0  0  0  0
  -25.6319  -10.8542   36.9368 H   0  0  0  0  0
  -25.6129  -10.9920   38.7416 H   0  0  0  0  0
  -22.8022   -9.5161   39.4224 H   0  0  0  0  0
  -24.3411   -9.2762   40.3508 H   0  0  0  0  0
  -23.4056   -7.8445   39.7582 H   0  0  0  0  0
  1  2  2  0  0  0
  1  3  1  0  0  0
  1  4  1  0  0  0
  3  5  1  0  0  0
  3  6  1  0  0  0
  3  7  1  0  0  0
  4  8  1  0  0  0
  4  9  1  0  0  0
  4 10  1  0  0  0
M  END
$$$$
