EDO_1_A_9002
  -ISIS-            3D

 10  9  0  0  0  0  0  0  0  0  1 V2000
   -3.8480    0.7790   13.4650 C   0  0  0  0  0
   -3.1780    2.0450   13.5940 O   0  0  0  0  0
   -4.5600    0.4900   14.8100 C   0  0  0  0  0
   -5.5260    1.5090   15.0260 O   0  0  0  0  0
   -3.1120   -0.0164   13.2251 H   0  0  0  0  0
   -4.5780    0.8306   12.6316 H   0  0  0  0  0
   -2.5124    1.9722   14.2655 H   0  0  0  0  0
   -3.8333    0.4670   15.6489 H   0  0  0  0  0
   -5.0623   -0.4994   14.7691 H   0  0  0  0  0
   -5.9742    1.3331   15.8430 H   0  0  0  0  0
  1  2  1  0  0  0
  1  3  1  0  0  0
  1  5  1  0  0  0
  1  6  1  0  0  0
  2  7  1  0  0  0
  3  4  1  0  0  0
  3  8  1  0  0  0
  3  9  1  0  0  0
  4 10  1  0  0  0
M  END
$$$$
