DMS_1_A_401
  -ISIS-            3D

 10  9  0  0  0  0  0  0  0  0  1 V2000
   24.8550   -3.5950   20.2940 S   0  0  0  0  0
   25.1500   -4.6830   19.2840 O   0  0  0  0  0
   26.2090   -2.4450   20.2290 C   0  0  0  0  0
   25.1780   -4.2830   21.8970 C   0  0  0  0  0
   26.1052   -1.6956   21.0403 H   0  0  0  0  0
   26.1971   -1.9199   19.2519 H   0  0  0  0  0
   27.1743   -2.9797   20.3404 H   0  0  0  0  0
   25.0994   -3.4907   22.6694 H   0  0  0  0  0
   26.1926   -4.7298   21.9276 H   0  0  0  0  0
   24.4292   -5.0716   22.1152 H   0  0  0  0  0
  1  2  2  0  0  0
  1  3  1  0  0  0
  1  4  1  0  0  0
  3  5  1  0  0  0
  3  6  1  0  0  0
  3  7  1  0  0  0
  4  8  1  0  0  0
  4  9  1  0  0  0
  4 10  1  0  0  0
M  END
$$$$
