DMS_2_A_403
  -ISIS-            3D

 10  9  0  0  0  0  0  0  0  0  1 V2000
   -2.2730  -19.0920   -8.0660 S   0  0  0  0  0
   -3.5660  -18.6490   -8.7490 O   0  0  0  0  0
   -0.9690  -18.1920   -8.8770 C   0  0  0  0  0
   -1.9170  -20.6990   -8.7590 C   0  0  0  0  0
    0.0165  -18.5811   -8.5489 H   0  0  0  0  0
   -1.0399  -17.1193   -8.6033 H   0  0  0  0  0
   -1.0579  -18.2905   -9.9783 H   0  0  0  0  0
   -0.9090  -21.0317   -8.4368 H   0  0  0  0  0
   -1.9576  -20.6598   -9.8668 H   0  0  0  0  0
   -2.6689  -21.4287   -8.3950 H   0  0  0  0  0
  1  2  2  0  0  0
  1  3  1  0  0  0
  1  4  1  0  0  0
  3  5  1  0  0  0
  3  6  1  0  0  0
  3  7  1  0  0  0
  4  8  1  0  0  0
  4  9  1  0  0  0
  4 10  1  0  0  0
M  END
$$$$
