DMS_1_A_405
  -ISIS-            3D

 10  9  0  0  0  0  0  0  0  0  1 V2000
    6.2380    0.7530   17.4490 S   0  0  0  0  0
    7.5600    0.8560   18.1520 O   0  0  0  0  0
    5.4480    2.3300   17.6050 C   0  0  0  0  0
    5.1660   -0.1380   18.5440 C   0  0  0  0  0
    4.4064    2.2698   17.2282 H   0  0  0  0  0
    6.0025    3.0782   17.0022 H   0  0  0  0  0
    5.4398    2.6571   18.6649 H   0  0  0  0  0
    4.1307   -0.1331   18.1458 H   0  0  0  0  0
    5.1759    0.3193   19.5545 H   0  0  0  0  0
    5.5132   -1.1888   18.6213 H   0  0  0  0  0
  1  2  2  0  0  0
  1  3  1  0  0  0
  1  4  1  0  0  0
  3  5  1  0  0  0
  3  6  1  0  0  0
  3  7  1  0  0  0
  4  8  1  0  0  0
  4  9  1  0  0  0
  4 10  1  0  0  0
M  END
$$$$
