BAQ_1_A_401
  -ISIS-            3D

  9  9  0  0  0  0  0  0  0  0  1 V2000
   -6.9320   15.0420   -0.5580 O   0  0  0  0  0
   -5.7890   15.0210   -0.0960 C   0  0  0  0  0
   -5.4270   14.8620    1.3440 C   0  0  0  0  0
   -3.9890   15.3360    1.4110 C   0  0  0  0  0
   -3.4640   15.2020   -0.0030 C   0  0  0  0  0
   -4.6760   15.1360   -0.8060 N   0  0  0  0  0
   -6.1294   14.6628    2.1617 H   0  0  0  0  0
   -3.4083   15.5622    2.3138 H   0  0  0  0  0
   -2.4409   15.2855   -0.3811 H   0  0  0  0  0
  1  2  2  0  0  0
  2  3  1  0  0  0
  2  6  1  0  0  0
  3  4  1  0  0  0
  3  7  1  0  0  0
  4  5  1  0  0  0
  4  8  1  0  0  0
  5  6  1  0  0  0
  5  9  1  0  0  0
M  END
$$$$
