DMS_1_A_401
  -ISIS-            3D

 10  9  0  0  0  0  0  0  0  0  1 V2000
    7.1850  -28.0150   21.4960 S   0  0  0  0  0
    6.3460  -27.1900   20.5330 O   0  0  0  0  0
    7.8670  -26.9190   22.6280 C   0  0  0  0  0
    6.0040  -28.8100   22.5690 C   0  0  0  0  0
    8.3662  -27.4775   23.4460 H   0  0  0  0  0
    7.0843  -26.2619   23.0595 H   0  0  0  0  0
    8.6235  -26.2856   22.1211 H   0  0  0  0  0
    6.5347  -29.3319   23.3914 H   0  0  0  0  0
    5.4247  -29.5557   21.9868 H   0  0  0  0  0
    5.3045  -28.0622   22.9959 H   0  0  0  0  0
  1  2  2  0  0  0
  1  3  1  0  0  0
  1  4  1  0  0  0
  3  5  1  0  0  0
  3  6  1  0  0  0
  3  7  1  0  0  0
  4  8  1  0  0  0
  4  9  1  0  0  0
  4 10  1  0  0  0
M  END
$$$$
