EDO_1_A_603
  -ISIS-            3D

 10  9  0  0  0  0  0  0  0  0  1 V2000
   16.4970  -22.3770   36.8330 C   0  0  0  0  0
   16.2240  -22.7120   38.2060 O   0  0  0  0  0
   16.4270  -20.8570   36.7070 C   0  0  0  0  0
   16.8420  -20.3640   35.4130 O   0  0  0  0  0
   15.7545  -22.8618   36.1652 H   0  0  0  0  0
   17.5063  -22.7466   36.5553 H   0  0  0  0  0
   16.2087  -23.6571   38.2821 H   0  0  0  0  0
   17.0544  -20.3806   37.4908 H   0  0  0  0  0
   15.3862  -20.5169   36.8898 H   0  0  0  0  0
   17.7890  -20.3219   35.4020 H   0  0  0  0  0
  1  2  1  0  0  0
  1  3  1  0  0  0
  1  5  1  0  0  0
  1  6  1  0  0  0
  2  7  1  0  0  0
  3  4  1  0  0  0
  3  8  1  0  0  0
  3  9  1  0  0  0
  4 10  1  0  0  0
M  END
$$$$
