DMS_1_A_401
  -ISIS-            3D

 10  9  0  0  0  0  0  0  0  0  1 V2000
    7.6970  -28.5560   21.0560 S   0  0  0  0  0
    8.4800  -27.6640   21.9530 O   0  0  0  0  0
    6.4880  -29.5260   21.9890 C   0  0  0  0  0
    6.5000  -27.5190   20.1750 C   0  0  0  0  0
    5.8454  -30.0972   21.2883 H   0  0  0  0  0
    5.8600  -28.8554   22.6107 H   0  0  0  0  0
    7.0251  -30.2371   22.6494 H   0  0  0  0  0
    5.8444  -28.1560   19.5468 H   0  0  0  0  0
    7.0461  -26.8076   19.5221 H   0  0  0  0  0
    5.8835  -26.9488   20.8999 H   0  0  0  0  0
  1  2  2  0  0  0
  1  3  1  0  0  0
  1  4  1  0  0  0
  3  5  1  0  0  0
  3  6  1  0  0  0
  3  7  1  0  0  0
  4  8  1  0  0  0
  4  9  1  0  0  0
  4 10  1  0  0  0
M  END
$$$$
