DMS_1_A_402
  -ISIS-            3D

 10  9  0  0  0  0  0  0  0  0  1 V2000
   20.1360  -16.6270    4.4700 S   0  0  0  0  0
   20.4240  -16.6200    3.0010 O   0  0  0  0  0
   21.2850  -15.5240    5.3270 C   0  0  0  0  0
   20.6060  -18.2250    5.1890 C   0  0  0  0  0
   21.1011  -15.5725    6.4197 H   0  0  0  0  0
   21.1251  -14.4842    4.9756 H   0  0  0  0  0
   22.3298  -15.8281    5.1115 H   0  0  0  0  0
   20.4392  -18.2019    6.2853 H   0  0  0  0  0
   21.6755  -18.4314    4.9789 H   0  0  0  0  0
   19.9820  -19.0251    4.7409 H   0  0  0  0  0
  1  2  2  0  0  0
  1  3  1  0  0  0
  1  4  1  0  0  0
  3  5  1  0  0  0
  3  6  1  0  0  0
  3  7  1  0  0  0
  4  8  1  0  0  0
  4  9  1  0  0  0
  4 10  1  0  0  0
M  END
$$$$
