PZA_1_A_201
  -ISIS-            3D

 14 14  0  0  0  0  0  0  0  0  1 V2000
  -49.2920  -29.1500    6.8820 C   0  0  0  0  0
  -48.2610  -29.1660    7.8830 N   0  0  0  0  0
  -50.4210  -29.1250    7.1910 O   0  0  0  0  0
  -47.3070  -29.2280    3.7970 C   0  0  0  0  0
  -48.2830  -29.1750    2.8300 C   0  0  0  0  0
  -49.5420  -29.1240    3.1650 N   0  0  0  0  0
  -49.8780  -29.1190    4.4380 C   0  0  0  0  0
  -48.8970  -29.1490    5.4210 C   0  0  0  0  0
  -47.6250  -29.2100    5.0630 N   0  0  0  0  0
  -47.2810  -29.1817    7.5703 H   0  0  0  0  0
  -48.5338  -29.1616    8.8740 H   0  0  0  0  0
  -46.2417  -29.2797    3.5183 H   0  0  0  0  0
  -48.0187  -29.1801    1.7599 H   0  0  0  0  0
  -50.9477  -29.0828    4.6984 H   0  0  0  0  0
  1  2  1  0  0  0
  1  3  2  0  0  0
  1  8  1  0  0  0
  2 10  1  0  0  0
  2 11  1  0  0  0
  4  5  2  0  0  0
  4  9  1  0  0  0
  4 12  1  0  0  0
  5  6  1  0  0  0
  5 13  1  0  0  0
  6  7  2  0  0  0
  7  8  1  0  0  0
  7 14  1  0  0  0
  8  9  2  0  0  0
M  END
$$$$
