ALD_1_A_402
  -ISIS-            3D

 77 77  0  0  0  0  0  0  0  0  1 V2000
   20.2330    6.7190  -33.8740 C   0  0  0  0  0
   21.3920    7.0000  -34.1550 O   0  0  0  0  0
   19.3120    6.3330  -34.9180 O   0  0  0  0  0
   19.7520    6.4470  -36.2680 C   0  0  0  0  0
   19.5250    7.8250  -36.8640 C   0  0  0  0  0
   20.5760    8.7240  -37.0130 C   0  0  0  0  0
   20.3580    9.9720  -37.5910 C   0  0  0  0  0
   19.0870   10.3220  -38.0360 C   0  0  0  0  0
   18.0370    9.4190  -37.8970 C   0  0  0  0  0
   18.2580    8.1730  -37.3120 C   0  0  0  0  0
   19.7230    6.7420  -32.6530 N   0  0  0  0  0
   20.5210    7.0250  -31.4680 C   0  0  0  0  0
   20.7060    5.7930  -30.6740 C   0  0  0  0  0
   19.7600    5.1910  -30.1970 O   0  0  0  0  0
   19.7840    8.1000  -30.7050 C   0  0  0  0  0
   20.5410    8.6300  -29.5030 C   0  0  0  0  0
   21.7860    9.4000  -29.8960 C   0  0  0  0  0
   19.5470    9.4980  -28.7250 C   0  0  0  0  0
   21.9640    5.4110  -30.5130 N   0  0  0  0  0
   22.2930    4.2660  -29.6680 C   0  0  0  0  0
   22.1080    4.6250  -28.2080 C   0  0  0  0  0
   22.7010    5.5620  -27.7190 O   0  0  0  0  0
   23.7040    3.8010  -29.9730 C   0  0  0  0  0
   23.8860    3.3530  -31.4120 C   0  0  0  0  0
   23.0390    2.1240  -31.7160 C   0  0  0  0  0
   25.3580    3.1020  -31.7540 C   0  0  0  0  0
   21.2720    3.8820  -27.4960 N   0  0  0  0  0
   20.9560    4.1500  -26.0820 C   0  0  0  0  0
   21.5920    3.0090  -25.2510 C   0  0  0  0  0
   19.4530    4.1870  -25.7690 C   0  0  0  0  0
   18.6420    5.3660  -26.3140 C   0  0  0  0  0
   19.1580    6.6950  -25.7860 C   0  0  0  0  0
   17.1480    5.1620  -25.9700 C   0  0  0  0  0
   21.3120    3.1600  -23.8430 O   0  0  0  0  0
   19.1972    5.7072  -36.8826 H   0  0  0  0  0
   20.8173    6.1564  -36.3735 H   0  0  0  0  0
   21.5900    8.4557  -36.6708 H   0  0  0  0  0
   21.1950   10.6830  -37.6983 H   0  0  0  0  0
   18.9127   11.3094  -38.4965 H   0  0  0  0  0
   17.0273    9.6904  -38.2500 H   0  0  0  0  0
   17.4167    7.4664  -37.2088 H   0  0  0  0  0
   18.7285    6.5098  -32.5358 H   0  0  0  0  0
   21.5098    7.4379  -31.7715 H   0  0  0  0  0
   18.7972    7.6962  -30.3776 H   0  0  0  0  0
   19.5552    8.9475  -31.3937 H   0  0  0  0  0
   20.8392    7.7777  -28.8457 H   0  0  0  0  0
   22.2760    9.8567  -29.0070 H   0  0  0  0  0
   21.5599   10.2289  -30.6033 H   0  0  0  0  0
   22.5524    8.7532  -30.3760 H   0  0  0  0  0
   20.0096    9.9120  -27.8010 H   0  0  0  0  0
   18.6507    8.9232  -28.4007 H   0  0  0  0  0
   19.1880   10.3643  -29.3247 H   0  0  0  0  0
   22.7257    5.9431  -30.9538 H   0  0  0  0  0
   21.6005    3.4238  -29.8988 H   0  0  0  0  0
   23.9750    2.9658  -29.2861 H   0  0  0  0  0
   24.4173    4.6280  -29.7483 H   0  0  0  0  0
   23.5420    4.1719  -32.0900 H   0  0  0  0  0
   23.2330    1.7430  -32.7437 H   0  0  0  0  0
   21.9477    2.3293  -31.6676 H   0  0  0  0  0
   23.2536    1.2859  -31.0158 H   0  0  0  0  0
   25.4907    2.8158  -32.8215 H   0  0  0  0  0
   25.7905    2.2834  -31.1363 H   0  0  0  0  0
   25.9804    4.0089  -31.5829 H   0  0  0  0  0
   20.7910    3.0942  -27.9515 H   0  0  0  0  0
   21.4139    5.1052  -25.7387 H   0  0  0  0  0
   22.6934    3.0028  -25.4057 H   0  0  0  0  0
   21.2077    2.0232  -25.5924 H   0  0  0  0  0
   19.3130    4.1754  -24.6635 H   0  0  0  0  0
   18.9980    3.2383  -26.1389 H   0  0  0  0  0
   18.7382    5.3732  -27.4274 H   0  0  0  0  0
   18.5213    7.5416  -26.1271 H   0  0  0  0  0
   20.1892    6.9176  -26.1376 H   0  0  0  0  0
   19.1703    6.7253  -24.6737 H   0  0  0  0  0
   16.5196    5.9797  -26.3889 H   0  0  0  0  0
   16.9746    5.1430  -24.8708 H   0  0  0  0  0
   16.7556    4.2072  -26.3862 H   0  0  0  0  0
   21.7993    2.4987  -23.3703 H   0  0  0  0  0
  1  2  2  0  0  0
  1  3  1  0  0  0
  1 11  1  0  0  0
  3  4  1  0  0  0
  4  5  1  0  0  0
  4 35  1  0  0  0
  4 36  1  0  0  0
  5  6  2  0  0  0
  5 10  1  0  0  0
  6  7  1  0  0  0
  6 37  1  0  0  0
  7  8  2  0  0  0
  7 38  1  0  0  0
  8  9  1  0  0  0
  8 39  1  0  0  0
  9 10  2  0  0  0
  9 40  1  0  0  0
 10 41  1  0  0  0
 11 12  1  0  0  0
 11 42  1  0  0  0
 12 13  1  0  0  0
 12 15  1  0  0  0
 12 43  1  0  0  0
 13 14  2  0  0  0
 13 19  1  0  0  0
 15 16  1  0  0  0
 15 44  1  0  0  0
 15 45  1  0  0  0
 16 17  1  0  0  0
 16 18  1  0  0  0
 16 46  1  0  0  0
 17 47  1  0  0  0
 17 48  1  0  0  0
 17 49  1  0  0  0
 18 50  1  0  0  0
 18 51  1  0  0  0
 18 52  1  0  0  0
 19 20  1  0  0  0
 19 53  1  0  0  0
 20 21  1  0  0  0
 20 23  1  0  0  0
 20 54  1  0  0  0
 21 22  2  0  0  0
 21 27  1  0  0  0
 23 24  1  0  0  0
 23 55  1  0  0  0
 23 56  1  0  0  0
 24 25  1  0  0  0
 24 26  1  0  0  0
 24 57  1  0  0  0
 25 58  1  0  0  0
 25 59  1  0  0  0
 25 60  1  0  0  0
 26 61  1  0  0  0
 26 62  1  0  0  0
 26 63  1  0  0  0
 27 28  1  0  0  0
 27 64  1  0  0  0
 28 29  1  0  0  0
 28 30  1  0  0  0
 28 65  1  0  0  0
 29 34  1  0  0  0
 29 66  1  0  0  0
 29 67  1  0  0  0
 30 31  1  0  0  0
 30 68  1  0  0  0
 30 69  1  0  0  0
 31 32  1  0  0  0
 31 33  1  0  0  0
 31 70  1  0  0  0
 32 71  1  0  0  0
 32 72  1  0  0  0
 32 73  1  0  0  0
 33 74  1  0  0  0
 33 75  1  0  0  0
 33 76  1  0  0  0
 34 77  1  0  0  0
M  END
$$$$
