EDO_1_A_404
  -ISIS-            3D

 10  9  0  0  0  0  0  0  0  0  1 V2000
   23.7470   -2.7200  -10.2410 C   0  0  0  0  0
   25.1300   -2.3030  -10.3020 O   0  0  0  0  0
   23.5650   -3.9980  -11.0530 C   0  0  0  0  0
   22.9670   -5.0380  -10.2690 O   0  0  0  0  0
   23.0974   -1.9117  -10.6379 H   0  0  0  0  0
   23.4622   -2.8794   -9.1799 H   0  0  0  0  0
   25.2144   -1.4911   -9.8200 H   0  0  0  0  0
   24.5341   -4.3559  -11.4600 H   0  0  0  0  0
   22.9135   -3.8002  -11.9293 H   0  0  0  0  0
   23.6415   -5.4140   -9.7185 H   0  0  0  0  0
  1  2  1  0  0  0
  1  3  1  0  0  0
  1  5  1  0  0  0
  1  6  1  0  0  0
  2  7  1  0  0  0
  3  4  1  0  0  0
  3  8  1  0  0  0
  3  9  1  0  0  0
  4 10  1  0  0  0
M  END
$$$$
