DMS_1_A_1003
  -ISIS-            3D

 10  9  0  0  0  0  0  0  0  0  1 V2000
    6.1950   -0.9310   -6.2720 S   0  0  0  0  0
    7.1120   -0.7120   -7.3950 O   0  0  0  0  0
    7.2630   -1.0750   -4.8570 C   0  0  0  0  0
    5.6820   -2.6070   -6.4150 C   0  0  0  0  0
    6.6740   -1.3992   -3.9748 H   0  0  0  0  0
    7.7207   -0.0883   -4.6396 H   0  0  0  0  0
    8.0680   -1.8127   -5.0536 H   0  0  0  0  0
    5.1152   -2.9052   -5.5095 H   0  0  0  0  0
    6.5609   -3.2736   -6.5336 H   0  0  0  0  0
    5.0235   -2.7173   -7.3008 H   0  0  0  0  0
  1  2  2  0  0  0
  1  3  1  0  0  0
  1  4  1  0  0  0
  3  5  1  0  0  0
  3  6  1  0  0  0
  3  7  1  0  0  0
  4  8  1  0  0  0
  4  9  1  0  0  0
  4 10  1  0  0  0
M  END
$$$$
