DMS_2_A_401
  -ISIS-            3D

 10  9  0  0  0  0  0  0  0  0  1 V2000
   -6.9250  -27.9910  -21.5820 S   0  0  0  0  0
   -7.6840  -27.0770  -22.4450 O   0  0  0  0  0
   -5.6710  -28.7350  -22.6110 C   0  0  0  0  0
   -5.8850  -26.9600  -20.6090 C   0  0  0  0  0
   -4.9719  -29.3245  -21.9832 H   0  0  0  0  0
   -5.1068  -27.9523  -23.1586 H   0  0  0  0  0
   -6.1539  -29.4130  -23.3440 H   0  0  0  0  0
   -5.1769  -27.5829  -20.0249 H   0  0  0  0  0
   -6.5059  -26.3706  -19.9038 H   0  0  0  0  0
   -5.3138  -26.2624  -21.2557 H   0  0  0  0  0
  1  2  2  0  0  0
  1  3  1  0  0  0
  1  4  1  0  0  0
  3  5  1  0  0  0
  3  6  1  0  0  0
  3  7  1  0  0  0
  4  8  1  0  0  0
  4  9  1  0  0  0
  4 10  1  0  0  0
M  END
$$$$
