DMS_2_A_404
  -ISIS-            3D

 10  9  0  0  0  0  0  0  0  0  1 V2000
   -6.0880   -0.9950    6.3370 S   0  0  0  0  0
   -6.9460   -0.6060    7.4870 O   0  0  0  0  0
   -5.7410   -2.7670    6.3610 C   0  0  0  0  0
   -7.0760   -0.8860    4.8090 C   0  0  0  0  0
   -5.1608   -3.0446    5.4574 H   0  0  0  0  0
   -6.6924   -3.3370    6.3822 H   0  0  0  0  0
   -5.1470   -3.0113    7.2653 H   0  0  0  0  0
   -6.4635   -1.2212    3.9471 H   0  0  0  0  0
   -7.3868    0.1668    4.6496 H   0  0  0  0  0
   -7.9773   -1.5266    4.8980 H   0  0  0  0  0
  1  2  2  0  0  0
  1  3  1  0  0  0
  1  4  1  0  0  0
  3  5  1  0  0  0
  3  6  1  0  0  0
  3  7  1  0  0  0
  4  8  1  0  0  0
  4  9  1  0  0  0
  4 10  1  0  0  0
M  END
$$$$
