DMS_2_A_405
  -ISIS-            3D

 10  9  0  0  0  0  0  0  0  0  1 V2000
   -7.0720  -28.0620  -21.4290 S   0  0  0  0  0
   -8.0600  -27.1780  -22.0930 O   0  0  0  0  0
   -5.7220  -28.4930  -22.5650 C   0  0  0  0  0
   -6.1660  -27.1910  -20.1290 C   0  0  0  0  0
   -4.9883  -29.1385  -22.0406 H   0  0  0  0  0
   -5.2204  -27.5685  -22.9174 H   0  0  0  0  0
   -6.1366  -29.0417  -23.4352 H   0  0  0  0  0
   -5.4212  -27.8750  -19.6735 H   0  0  0  0  0
   -6.8781  -26.8536  -19.3485 H   0  0  0  0  0
   -5.6478  -26.3098  -20.5596 H   0  0  0  0  0
  1  2  2  0  0  0
  1  3  1  0  0  0
  1  4  1  0  0  0
  3  5  1  0  0  0
  3  6  1  0  0  0
  3  7  1  0  0  0
  4  8  1  0  0  0
  4  9  1  0  0  0
  4 10  1  0  0  0
M  END
$$$$
