EDO_1_A_401
  -ISIS-            3D

 10  9  0  0  0  0  0  0  0  0  1 V2000
   35.6120   13.1950  -35.8580 C   0  0  0  0  0
   35.5290   13.2590  -34.4270 O   0  0  0  0  0
   34.4270   12.4110  -36.4100 C   0  0  0  0  0
   34.2530   11.1850  -35.6900 O   0  0  0  0  0
   36.5627   12.6980  -36.1465 H   0  0  0  0  0
   35.6297   14.2209  -36.2824 H   0  0  0  0  0
   36.2763   13.7478  -34.1093 H   0  0  0  0  0
   34.5715   12.1859  -37.4866 H   0  0  0  0  0
   33.4970   13.0120  -36.3248 H   0  0  0  0  0
   34.3762   11.3984  -34.7717 H   0  0  0  0  0
  1  2  1  0  0  0
  1  3  1  0  0  0
  1  5  1  0  0  0
  1  6  1  0  0  0
  2  7  1  0  0  0
  3  4  1  0  0  0
  3  8  1  0  0  0
  3  9  1  0  0  0
  4 10  1  0  0  0
M  END
$$$$
