AZP_1_A_401
  -ISIS-            3D

 89 90  0  0  0  0  0  0  0  0  1 V2000
   16.6830  -14.5140   12.2850 N   0  0  0  0  0
   16.6040  -15.3460   13.3150 C   0  0  0  0  0
   15.3100  -15.4930   13.9290 O   0  0  0  0  0
   15.3840  -15.6530   15.3540 C   0  0  0  0  0
   13.9630  -16.0420   15.7630 C   0  0  0  0  0
   13.0150  -15.0560   16.0830 C   0  0  0  0  0
   11.7140  -15.4640   16.4730 C   0  0  0  0  0
   11.3370  -16.8150   16.4990 C   0  0  0  0  0
   12.2630  -17.7970   16.1680 C   0  0  0  0  0
   13.5720  -17.4010   15.8050 C   0  0  0  0  0
   17.5570  -15.9900   13.7180 O   0  0  0  0  0
   17.7560  -14.4570   11.2640 C   0  0  0  0  0
   17.2660  -14.9640    9.8930 C   0  0  0  0  0
   17.5330  -16.4420    9.6700 C   0  0  0  0  0
   16.6370  -17.2480   10.5710 C   0  0  0  0  0
   17.1180  -16.8680    8.2580 C   0  0  0  0  0
   18.0810  -13.0060   11.1450 C   0  0  0  0  0
   17.1990  -12.1760   10.9500 O   0  0  0  0  0
   19.3290  -12.6130   11.2410 N   0  0  0  0  0
   19.7080  -11.2200   11.1110 C   0  0  0  0  0
   21.2170  -11.0820   11.2540 C   0  0  0  0  0
   21.7060  -11.3080   12.6670 C   0  0  0  0  0
   21.1500  -10.6560   13.7660 C   0  0  0  0  0
   21.6840  -10.8670   15.0490 C   0  0  0  0  0
   22.7500  -11.7340   15.2550 C   0  0  0  0  0
   23.2790  -12.3960   14.1660 C   0  0  0  0  0
   22.7630  -12.1630   12.8890 C   0  0  0  0  0
   19.3290  -10.7380    9.7580 C   0  0  0  0  0
   19.4060  -11.4610    8.7330 O   0  0  0  0  0
   18.9280   -9.4630    9.7230 N   0  0  0  0  0
   18.5760   -8.9150    8.4510 N   0  0  0  0  0
   17.1910   -8.9970    8.0550 C   0  0  0  0  0
   17.0110   -9.7150    6.7120 C   0  0  0  0  0
   15.5040   -9.8080    6.4590 C   0  0  0  0  0
   15.0040  -10.6810    5.5720 N   0  0  0  0  0
   14.7380   -9.0870    7.0740 O   0  0  0  0  0
   19.5770   -8.3800    7.6950 C   0  0  0  0  0
   19.3720   -7.9480    6.5890 O   0  0  0  0  0
   20.9900   -8.2640    8.2150 C   0  0  0  0  0
   22.0460   -9.1350    7.5220 C   0  0  0  0  0
   21.6360  -10.4670    7.7650 O   0  0  0  0  0
   23.3830   -8.9070    8.1690 C   0  0  0  0  0
   24.0830   -8.0060    7.7960 O   0  0  0  0  0
   23.7880   -9.7970    9.2380 O   0  0  0  0  0
   24.9540   -9.4230    9.9460 C   0  0  0  0  0
   25.0940  -10.5440   10.9450 C   0  0  0  0  0
   15.8975  -13.8627   12.1459 H   0  0  0  0  0
   15.6903  -14.7099   15.8515 H   0  0  0  0  0
   16.0924  -16.4500   15.6594 H   0  0  0  0  0
   13.2730  -13.9845   16.0454 H   0  0  0  0  0
   10.9729  -14.6941   16.7492 H   0  0  0  0  0
   10.3100  -17.0969   16.7870 H   0  0  0  0  0
   11.9854  -18.8642   16.1873 H   0  0  0  0  0
   14.3061  -18.1824   15.5432 H   0  0  0  0  0
   18.6577  -15.0253   11.5876 H   0  0  0  0  0
   17.8137  -14.4033    9.0985 H   0  0  0  0  0
   16.1886  -14.7200    9.7497 H   0  0  0  0  0
   18.6067  -16.6901    9.8421 H   0  0  0  0  0
   16.6658  -18.3327   10.3222 H   0  0  0  0  0
   15.5700  -16.9347   10.5202 H   0  0  0  0  0
   16.9504  -17.1868   11.6325 H   0  0  0  0  0
   17.3014  -17.9510    8.0765 H   0  0  0  0  0
   17.6989  -16.3168    7.4847 H   0  0  0  0  0
   16.0412  -16.6736    8.0529 H   0  0  0  0  0
   20.0656  -13.3090   11.4200 H   0  0  0  0  0
   19.1891  -10.6129   11.8878 H   0  0  0  0  0
   21.5198  -10.0488   10.9675 H   0  0  0  0  0
   21.7328  -11.7632   10.5396 H   0  0  0  0  0
   20.3049   -9.9578   13.6495 H   0  0  0  0  0
   21.2462  -10.3344   15.9109 H   0  0  0  0  0
   23.1592  -11.8939   16.2666 H   0  0  0  0  0
   24.1170  -13.1008   14.3020 H   0  0  0  0  0
   23.2227  -12.6970   12.0394 H   0  0  0  0  0
   18.8540   -8.9029   10.5835 H   0  0  0  0  0
   16.7633   -7.9693    7.9904 H   0  0  0  0  0
   16.6002   -9.5347    8.8336 H   0  0  0  0  0
   17.4567  -10.7345    6.7611 H   0  0  0  0  0
   17.4889   -9.1676    5.8711 H   0  0  0  0  0
   21.0274   -8.4368    9.3114 H   0  0  0  0  0
   21.2969   -7.1990    8.0937 H   0  0  0  0  0
   22.0901   -8.9230    6.4332 H   0  0  0  0  0
   20.7725  -10.6295    7.4066 H   0  0  0  0  0
   24.8380   -8.4460   10.4598 H   0  0  0  0  0
   25.8433   -9.3818    9.2827 H   0  0  0  0  0
   26.0467  -10.4590   11.5119 H   0  0  0  0  0
   25.0899  -11.5468   10.4642 H   0  0  0  0  0
   24.2770  -10.5155   11.6943 H   0  0  0  0  0
   13.9851  -10.7120    5.4389 H   0  0  0  0  0
   15.6383  -11.2962    5.0468 H   0  0  0  0  0
  1  2  1  0  0  0
  1 12  1  0  0  0
  1 47  1  0  0  0
  2  3  1  0  0  0
  2 11  2  0  0  0
  3  4  1  0  0  0
  4  5  1  0  0  0
  4 48  1  0  0  0
  4 49  1  0  0  0
  5  6  2  0  0  0
  5 10  1  0  0  0
  6  7  1  0  0  0
  6 50  1  0  0  0
  7  8  2  0  0  0
  7 51  1  0  0  0
  8  9  1  0  0  0
  8 52  1  0  0  0
  9 10  2  0  0  0
  9 53  1  0  0  0
 10 54  1  0  0  0
 12 13  1  0  0  0
 12 17  1  0  0  0
 12 55  1  0  0  0
 13 14  1  0  0  0
 13 56  1  0  0  0
 13 57  1  0  0  0
 14 15  1  0  0  0
 14 16  1  0  0  0
 14 58  1  0  0  0
 15 59  1  0  0  0
 15 60  1  0  0  0
 15 61  1  0  0  0
 16 62  1  0  0  0
 16 63  1  0  0  0
 16 64  1  0  0  0
 17 18  2  0  0  0
 17 19  1  0  0  0
 19 20  1  0  0  0
 19 65  1  0  0  0
 20 21  1  0  0  0
 20 28  1  0  0  0
 20 66  1  0  0  0
 21 22  1  0  0  0
 21 67  1  0  0  0
 21 68  1  0  0  0
 22 23  2  0  0  0
 22 27  1  0  0  0
 23 24  1  0  0  0
 23 69  1  0  0  0
 24 25  2  0  0  0
 24 70  1  0  0  0
 25 26  1  0  0  0
 25 71  1  0  0  0
 26 27  2  0  0  0
 26 72  1  0  0  0
 27 73  1  0  0  0
 28 29  2  0  0  0
 28 30  1  0  0  0
 30 31  1  0  0  0
 30 74  1  0  0  0
 31 32  1  0  0  0
 31 37  1  0  0  0
 32 33  1  0  0  0
 32 75  1  0  0  0
 32 76  1  0  0  0
 33 34  1  0  0  0
 33 77  1  0  0  0
 33 78  1  0  0  0
 34 35  1  0  0  0
 34 36  2  0  0  0
 35 88  1  0  0  0
 35 89  1  0  0  0
 37 38  2  0  0  0
 37 39  1  0  0  0
 39 40  1  0  0  0
 39 79  1  0  0  0
 39 80  1  0  0  0
 40 41  1  0  0  0
 40 42  1  0  0  0
 40 81  1  0  0  0
 41 82  1  0  0  0
 42 43  2  0  0  0
 42 44  1  0  0  0
 44 45  1  0  0  0
 45 46  1  0  0  0
 45 83  1  0  0  0
 45 84  1  0  0  0
 46 85  1  0  0  0
 46 86  1  0  0  0
 46 87  1  0  0  0
M  END
$$$$
