IMD_1_A_404
  -ISIS-            3D

  9  9  0  0  0  0  0  0  0  0  1 V2000
    5.6090   -2.5910   -6.1020 N   0  0  0  0  0
    6.0880   -1.6930   -5.2430 C   0  0  0  0  0
    6.5650   -0.6800   -5.9350 N   0  0  0  0  0
    6.5230   -0.9910   -7.2580 C   0  0  0  0  0
    5.9520   -2.1990   -7.3630 C   0  0  0  0  0
    5.1152   -3.4575   -5.8548 H   0  0  0  0  0
    6.0474   -1.6588   -4.1467 H   0  0  0  0  0
    6.9194   -0.2867   -7.9985 H   0  0  0  0  0
    5.7430   -2.7629   -8.2839 H   0  0  0  0  0
  1  2  2  0  0  0
  1  5  1  0  0  0
  1  6  1  0  0  0
  2  3  1  0  0  0
  2  7  1  0  0  0
  3  4  1  0  0  0
  4  5  1  0  0  0
  4  8  1  0  0  0
  5  9  1  0  0  0
M  END
$$$$
