DMS_1_A_402
  -ISIS-            3D

 10  9  0  0  0  0  0  0  0  0  1 V2000
    6.2520   -0.9600   -6.0800 S   0  0  0  0  0
    6.9960   -0.7390   -7.3280 O   0  0  0  0  0
    7.4850   -1.0600   -4.8270 C   0  0  0  0  0
    5.7210   -2.6520   -6.1080 C   0  0  0  0  0
    7.0206   -1.3623   -3.8661 H   0  0  0  0  0
    7.9602   -0.0663   -4.6967 H   0  0  0  0  0
    8.2639   -1.7991   -5.1071 H   0  0  0  0  0
    5.2813   -2.9233   -5.1265 H   0  0  0  0  0
    6.5779   -3.3221   -6.3262 H   0  0  0  0  0
    4.9501   -2.7822   -6.8946 H   0  0  0  0  0
  1  2  2  0  0  0
  1  3  1  0  0  0
  1  4  1  0  0  0
  3  5  1  0  0  0
  3  6  1  0  0  0
  3  7  1  0  0  0
  4  8  1  0  0  0
  4  9  1  0  0  0
  4 10  1  0  0  0
M  END
$$$$
