EDO_1_A_401
  -ISIS-            3D

 10  9  0  0  0  0  0  0  0  0  1 V2000
   12.2840   -0.0100   38.7290 C   0  0  0  0  0
   12.9720    1.0480   39.4070 O   0  0  0  0  0
   10.8990   -0.1660   39.3450 C   0  0  0  0  0
   10.0940   -0.9950   38.4980 O   0  0  0  0  0
   12.8602   -0.9553   38.8129 H   0  0  0  0  0
   12.1999    0.2429   37.6507 H   0  0  0  0  0
   13.8259    1.1475   39.0073 H   0  0  0  0  0
   10.4114    0.8267   39.4486 H   0  0  0  0  0
   10.9703   -0.6145   40.3582 H   0  0  0  0  0
    9.2337   -1.0686   38.8894 H   0  0  0  0  0
  1  2  1  0  0  0
  1  3  1  0  0  0
  1  5  1  0  0  0
  1  6  1  0  0  0
  2  7  1  0  0  0
  3  4  1  0  0  0
  3  8  1  0  0  0
  3  9  1  0  0  0
  4 10  1  0  0  0
M  END
$$$$
