DMS_2_A_405
  -ISIS-            3D

 10  9  0  0  0  0  0  0  0  0  1 V2000
   -5.5880    0.5400  -17.9490 S   0  0  0  0  0
   -6.8410    1.0800  -17.3270 O   0  0  0  0  0
   -4.8640    1.8660  -18.8850 C   0  0  0  0  0
   -6.1170   -0.4410  -19.3200 C   0  0  0  0  0
   -4.0141    1.4830  -19.4860 H   0  0  0  0  0
   -4.4878    2.6426  -18.1880 H   0  0  0  0  0
   -5.6185    2.3213  -19.5588 H   0  0  0  0  0
   -5.2382   -0.7639  -19.9147 H   0  0  0  0  0
   -6.8085    0.1365  -19.9672 H   0  0  0  0  0
   -6.6437   -1.3421  -18.9447 H   0  0  0  0  0
  1  2  2  0  0  0
  1  3  1  0  0  0
  1  4  1  0  0  0
  3  5  1  0  0  0
  3  6  1  0  0  0
  3  7  1  0  0  0
  4  8  1  0  0  0
  4  9  1  0  0  0
  4 10  1  0  0  0
M  END
$$$$
