DMS_1_B_702
  -ISIS-            3D

 10  9  0  0  0  0  0  0  0  0  1 V2000
   -0.8890   -2.1290   16.9760 S   0  0  0  0  0
   -0.7120   -3.5880   17.2460 O   0  0  0  0  0
   -2.3550   -1.9210   15.9430 C   0  0  0  0  0
    0.3910   -1.4700   15.8590 C   0  0  0  0  0
   -2.4916   -0.8468   15.7035 H   0  0  0  0  0
   -3.2459   -2.2875   16.4930 H   0  0  0  0  0
   -2.2398   -2.4994   15.0039 H   0  0  0  0  0
    0.1752   -0.4051   15.6352 H   0  0  0  0  0
    0.4038   -2.0551   14.9168 H   0  0  0  0  0
    1.3809   -1.5473   16.3540 H   0  0  0  0  0
  1  2  2  0  0  0
  1  3  1  0  0  0
  1  4  1  0  0  0
  3  5  1  0  0  0
  3  6  1  0  0  0
  3  7  1  0  0  0
  4  8  1  0  0  0
  4  9  1  0  0  0
  4 10  1  0  0  0
M  END
$$$$
