DMS_1_A_401
  -ISIS-            3D

 10  9  0  0  0  0  0  0  0  0  1 V2000
  -21.4230  -10.4270    8.8180 S   0  0  0  0  0
  -20.2120  -10.0890    8.0260 O   0  0  0  0  0
  -22.3110  -11.8360    8.0850 C   0  0  0  0  0
  -22.5300   -9.0110    8.6310 C   0  0  0  0  0
  -23.2511  -12.0108    8.6470 H   0  0  0  0  0
  -21.6726  -12.7411    8.1435 H   0  0  0  0  0
  -22.5468  -11.6165    7.0236 H   0  0  0  0  0
  -23.4768   -9.2098    9.1735 H   0  0  0  0  0
  -22.7474   -8.8442    7.5561 H   0  0  0  0  0
  -22.0474   -8.1071    9.0558 H   0  0  0  0  0
  1  2  2  0  0  0
  1  3  1  0  0  0
  1  4  1  0  0  0
  3  5  1  0  0  0
  3  6  1  0  0  0
  3  7  1  0  0  0
  4  8  1  0  0  0
  4  9  1  0  0  0
  4 10  1  0  0  0
M  END
$$$$
