DMS_2_A_407
  -ISIS-            3D

 10  9  0  0  0  0  0  0  0  0  1 V2000
  -20.2160  -16.5440   -4.9660 S   0  0  0  0  0
  -20.4690  -15.8580   -3.6590 O   0  0  0  0  0
  -21.3340  -15.8670   -6.2190 C   0  0  0  0  0
  -20.8290  -18.2520   -4.8980 C   0  0  0  0  0
  -21.1967  -16.4140   -7.1741 H   0  0  0  0  0
  -21.1003  -14.7942   -6.3763 H   0  0  0  0  0
  -22.3854  -15.9676   -5.8800 H   0  0  0  0  0
  -20.7029  -18.7315   -5.8902 H   0  0  0  0  0
  -21.9017  -18.2559   -4.6154 H   0  0  0  0  0
  -20.2479  -18.8185   -4.1419 H   0  0  0  0  0
  1  2  2  0  0  0
  1  3  1  0  0  0
  1  4  1  0  0  0
  3  5  1  0  0  0
  3  6  1  0  0  0
  3  7  1  0  0  0
  4  8  1  0  0  0
  4  9  1  0  0  0
  4 10  1  0  0  0
M  END
$$$$
