R30_1_B_401
  -ISIS-            3D

 51 54  0  0  0  0  0  0  0  0  1 V2000
   -5.6350  -14.4130   56.3790 O   0  0  0  0  0
   -5.6300  -14.9390   57.5270 C   0  0  0  0  0
   -6.7040  -14.7290   58.3770 N   0  0  0  0  0
   -6.7730  -15.2840   59.7470 C   0  0  0  0  0
   -7.5920  -16.3850   60.0570 C   0  0  0  0  0
   -7.7180  -16.9640   61.3460 C   0  0  0  0  0
   -7.0000  -16.4670   62.4650 C   0  0  0  0  0
   -7.1190  -17.0430   63.8070 N   0  0  0  0  0
   -7.2280  -18.4130   64.1420 C   0  0  0  0  0
   -7.3880  -19.0240   65.5800 C   0  0  0  0  0
   -7.9440  -18.1430   66.6930 C   0  0  0  0  0
   -7.1990  -19.2400   63.2100 O   0  0  0  0  0
   -6.1860  -15.3650   62.1740 C   0  0  0  0  0
   -6.0750  -14.7920   60.8640 C   0  0  0  0  0
   -7.8370  -13.7820   57.9710 C   0  0  0  0  0
   -7.9040  -12.6280   58.9310 C   0  0  0  0  0
   -8.5770  -12.7200   60.0790 C   0  0  0  0  0
   -8.4330  -11.3540   61.0690 S   0  0  0  0  0
   -7.3900  -10.6160   59.9630 C   0  0  0  0  0
   -7.1960  -11.4190   58.9000 C   0  0  0  0  0
   -4.3950  -15.7980   57.8370 C   0  0  0  0  0
   -3.5060  -16.2040   56.7830 N   0  0  0  0  0
   -2.3640  -15.4800   56.4530 N   0  0  0  0  0
   -1.7480  -16.0060   55.4770 N   0  0  0  0  0
   -2.4570  -17.1920   55.0720 C   0  0  0  0  0
   -3.5690  -17.2920   55.9200 C   0  0  0  0  0
   -4.4790  -18.3650   55.7830 C   0  0  0  0  0
   -4.2710  -19.3280   54.7960 C   0  0  0  0  0
   -3.1400  -19.2150   53.9420 C   0  0  0  0  0
   -2.2420  -18.1480   54.0890 C   0  0  0  0  0
   -8.1806  -16.8325   59.2375 H   0  0  0  0  0
   -8.3942  -17.8240   61.4795 H   0  0  0  0  0
   -7.0907  -16.3212   64.5381 H   0  0  0  0  0
   -6.3821  -19.3872   65.8968 H   0  0  0  0  0
   -8.0284  -19.9337   65.5005 H   0  0  0  0  0
   -8.0309  -18.7017   67.6520 H   0  0  0  0  0
   -8.9573  -17.7599   66.4373 H   0  0  0  0  0
   -7.2908  -17.2619   66.8811 H   0  0  0  0  0
   -5.5970  -14.9107   62.9889 H   0  0  0  0  0
   -5.4114  -13.9217   60.7251 H   0  0  0  0  0
   -8.8101  -14.3235   57.9655 H   0  0  0  0  0
   -7.7024  -13.3837   56.9414 H   0  0  0  0  0
   -9.1775  -13.5899   60.3871 H   0  0  0  0  0
   -6.9325   -9.6268   60.1102 H   0  0  0  0  0
   -6.5284  -11.1530   58.0654 H   0  0  0  0  0
   -4.7545  -16.7358   58.3193 H   0  0  0  0  0
   -3.7824  -15.2820   58.6107 H   0  0  0  0  0
   -5.3507  -18.4366   56.4534 H   0  0  0  0  0
   -4.9746  -20.1687   54.6772 H   0  0  0  0  0
   -2.9693  -19.9731   53.1592 H   0  0  0  0  0
   -1.3657  -18.0648   53.4255 H   0  0  0  0  0
  1  2  2  0  0  0
  2  3  1  0  0  0
  2 21  1  0  0  0
  3  4  1  0  0  0
  3 15  1  0  0  0
  4  5  2  0  0  0
  4 14  1  0  0  0
  5  6  1  0  0  0
  5 31  1  0  0  0
  6  7  2  0  0  0
  6 32  1  0  0  0
  7  8  1  0  0  0
  7 13  1  0  0  0
  8  9  1  0  0  0
  8 33  1  0  0  0
  9 10  1  0  0  0
  9 12  2  0  0  0
 10 11  1  0  0  0
 10 34  1  0  0  0
 10 35  1  0  0  0
 11 36  1  0  0  0
 11 37  1  0  0  0
 11 38  1  0  0  0
 13 14  2  0  0  0
 13 39  1  0  0  0
 14 40  1  0  0  0
 15 16  1  0  0  0
 15 41  1  0  0  0
 15 42  1  0  0  0
 16 17  2  0  0  0
 16 20  1  0  0  0
 17 18  1  0  0  0
 17 43  1  0  0  0
 18 19  1  0  0  0
 19 20  1  0  0  0
 19 44  1  0  0  0
 20 45  1  0  0  0
 21 22  1  0  0  0
 21 46  1  0  0  0
 21 47  1  0  0  0
 22 23  1  0  0  0
 22 26  1  0  0  0
 23 24  2  0  0  0
 24 25  1  0  0  0
 25 26  2  0  0  0
 25 30  1  0  0  0
 26 27  1  0  0  0
 27 28  2  0  0  0
 27 48  1  0  0  0
 28 29  1  0  0  0
 28 49  1  0  0  0
 29 30  2  0  0  0
 29 50  1  0  0  0
 30 51  1  0  0  0
M  END
$$$$
