DMS_1_A_402
  -ISIS-            3D

 10  9  0  0  0  0  0  0  0  0  1 V2000
    6.1630   -1.0010   -6.2840 S   0  0  0  0  0
    7.0990   -0.7830   -7.4220 O   0  0  0  0  0
    7.1590   -1.0170   -4.8110 C   0  0  0  0  0
    5.7330   -2.7140   -6.2970 C   0  0  0  0  0
    6.5376   -1.3079   -3.9394 H   0  0  0  0  0
    7.5687   -0.0013   -4.6351 H   0  0  0  0  0
    8.0006   -1.7315   -4.9206 H   0  0  0  0  0
    5.1456   -2.9627   -5.3895 H   0  0  0  0  0
    6.6461   -3.3431   -6.3297 H   0  0  0  0  0
    5.1148   -2.9303   -7.1923 H   0  0  0  0  0
  1  2  2  0  0  0
  1  3  1  0  0  0
  1  4  1  0  0  0
  3  5  1  0  0  0
  3  6  1  0  0  0
  3  7  1  0  0  0
  4  8  1  0  0  0
  4  9  1  0  0  0
  4 10  1  0  0  0
M  END
$$$$
