EDO_1_B_402
  -ISIS-            3D

 10  9  0  0  0  0  0  0  0  0  1 V2000
   19.2000  -30.5790   18.4980 C   0  0  0  0  0
   19.0030  -30.3940   17.0890 O   0  0  0  0  0
   20.6850  -30.4740   18.8240 C   0  0  0  0  0
   21.4020  -31.4770   18.0950 O   0  0  0  0  0
   18.7961  -31.5674   18.8018 H   0  0  0  0  0
   18.6248  -29.8050   19.0467 H   0  0  0  0  0
   19.6838  -30.8949   16.6541 H   0  0  0  0  0
   20.8603  -30.5932   19.9141 H   0  0  0  0  0
   21.0740  -29.4746   18.5382 H   0  0  0  0  0
   21.4444  -32.2626   18.6242 H   0  0  0  0  0
  1  2  1  0  0  0
  1  3  1  0  0  0
  1  5  1  0  0  0
  1  6  1  0  0  0
  2  7  1  0  0  0
  3  4  1  0  0  0
  3  8  1  0  0  0
  3  9  1  0  0  0
  4 10  1  0  0  0
M  END
$$$$
