DMS_2_A_401
  -ISIS-            3D

 10  9  0  0  0  0  0  0  0  0  1 V2000
   -7.1330  -28.1230  -21.3630 S   0  0  0  0  0
   -7.7570  -27.1210  -22.2250 O   0  0  0  0  0
   -5.8730  -28.8630  -22.3790 C   0  0  0  0  0
   -6.1030  -27.2600  -20.2330 C   0  0  0  0  0
   -5.2530  -29.5494  -21.7668 H   0  0  0  0  0
   -5.2257  -28.0797  -22.8244 H   0  0  0  0  0
   -6.3520  -29.4437  -23.1938 H   0  0  0  0  0
   -5.4866  -27.9812  -19.6584 H   0  0  0  0  0
   -6.7339  -26.6858  -19.5240 H   0  0  0  0  0
   -5.4370  -26.5565  -20.7737 H   0  0  0  0  0
  1  2  2  0  0  0
  1  3  1  0  0  0
  1  4  1  0  0  0
  3  5  1  0  0  0
  3  6  1  0  0  0
  3  7  1  0  0  0
  4  8  1  0  0  0
  4  9  1  0  0  0
  4 10  1  0  0  0
M  END
$$$$
