DMS_1_A_402
  -ISIS-            3D

 10  9  0  0  0  0  0  0  0  0  1 V2000
    6.1210   -0.9130   -6.3030 S   0  0  0  0  0
    7.0010   -0.7640   -7.4980 O   0  0  0  0  0
    7.1840   -0.8340   -4.8900 C   0  0  0  0  0
    5.7530   -2.6340   -6.1970 C   0  0  0  0  0
    6.6146   -1.0922   -3.9737 H   0  0  0  0  0
    7.5783    0.1974   -4.7854 H   0  0  0  0  0
    8.0368   -1.5345   -5.0049 H   0  0  0  0  0
    5.2222   -2.8497   -5.2473 H   0  0  0  0  0
    6.6841   -3.2356   -6.2439 H   0  0  0  0  0
    5.0970   -2.9221   -7.0439 H   0  0  0  0  0
  1  2  2  0  0  0
  1  3  1  0  0  0
  1  4  1  0  0  0
  3  5  1  0  0  0
  3  6  1  0  0  0
  3  7  1  0  0  0
  4  8  1  0  0  0
  4  9  1  0  0  0
  4 10  1  0  0  0
M  END
$$$$
