DMS_1_A_403
  -ISIS-            3D

 10  9  0  0  0  0  0  0  0  0  1 V2000
    2.3090  -19.0620    8.0720 S   0  0  0  0  0
    3.6180  -18.7630    8.8020 O   0  0  0  0  0
    1.0100  -18.2370    8.9540 C   0  0  0  0  0
    1.8650  -20.7120    8.5730 C   0  0  0  0  0
    0.0235  -18.5540    8.5582 H   0  0  0  0  0
    1.1142  -17.1414    8.8160 H   0  0  0  0  0
    1.0674  -18.4694   10.0373 H   0  0  0  0  0
    0.8512  -20.9606    8.1979 H   0  0  0  0  0
    1.8835  -20.8004    9.6788 H   0  0  0  0  0
    2.5908  -21.4317    8.1424 H   0  0  0  0  0
  1  2  2  0  0  0
  1  3  1  0  0  0
  1  4  1  0  0  0
  3  5  1  0  0  0
  3  6  1  0  0  0
  3  7  1  0  0  0
  4  8  1  0  0  0
  4  9  1  0  0  0
  4 10  1  0  0  0
M  END
$$$$
