HSM_1_A_201
  -ISIS-            3D

 18 18  0  0  0  0  0  0  0  0  1 V2000
  -50.9140  -30.3050    8.2050 N   0  3  0  0  0
  -50.0910  -30.4180    7.0140 C   0  0  0  0  0
  -49.2690  -29.1540    6.7820 C   0  0  0  0  0
  -48.4200  -29.2510    5.4910 C   0  0  0  0  0
  -48.8350  -29.0790    4.2520 N   0  0  0  0  0
  -47.0910  -29.5720    5.4170 C   0  0  0  0  0
  -47.8130  -29.2860    3.4300 C   0  0  0  0  0
  -46.7460  -29.5710    4.1520 N   0  0  0  0  0
  -51.4580  -31.1530    8.3397 H   0  0  0  0  0
  -51.5604  -29.5248    8.1246 H   0  0  0  0  0
  -50.7401  -30.6065    6.1276 H   0  0  0  0  0
  -49.4136  -31.2983    7.1041 H   0  0  0  0  0
  -48.5930  -28.9712    7.6478 H   0  0  0  0  0
  -49.9367  -28.2666    6.6995 H   0  0  0  0  0
  -46.3525  -29.8052    6.1932 H   0  0  0  0  0
  -47.7704  -29.2348    2.3353 H   0  0  0  0  0
  -45.5423  -29.8227    3.6805 H   0  0  0  0  0
  -50.3397  -30.1642    9.0317 H   0  0  0  0  0
  1  2  1  0  0  0
  1  9  1  0  0  0
  1 10  1  0  0  0
  2  3  1  0  0  0
  2 11  1  0  0  0
  2 12  1  0  0  0
  3  4  1  0  0  0
  3 13  1  0  0  0
  3 14  1  0  0  0
  4  5  2  0  0  0
  4  6  1  0  0  0
  5  7  1  0  0  0
  6  8  2  0  0  0
  6 15  1  0  0  0
  7  8  1  0  0  0
  7 16  1  0  0  0
  8 17  1  0  0  0
  1 18  1  0  0  0
M  END
$$$$
