DMS_1_A_403
  -ISIS-            3D

 10  9  0  0  0  0  0  0  0  0  1 V2000
    2.3440  -19.0970    8.1640 S   0  0  0  0  0
    3.6270  -18.8220    8.8620 O   0  0  0  0  0
    1.2180  -17.8940    8.8110 C   0  0  0  0  0
    1.7290  -20.5160    9.0360 C   0  0  0  0  0
    0.1831  -18.1416    8.4980 H   0  0  0  0  0
    1.4816  -16.8927    8.4132 H   0  0  0  0  0
    1.2711  -17.8674    9.9189 H   0  0  0  0  0
    0.6831  -20.7206    8.7287 H   0  0  0  0  0
    1.7636  -20.3450   10.1318 H   0  0  0  0  0
    2.3531  -21.3989    8.7881 H   0  0  0  0  0
  1  2  2  0  0  0
  1  3  1  0  0  0
  1  4  1  0  0  0
  3  5  1  0  0  0
  3  6  1  0  0  0
  3  7  1  0  0  0
  4  8  1  0  0  0
  4  9  1  0  0  0
  4 10  1  0  0  0
M  END
$$$$
