DMS_1_A_402
  -ISIS-            3D

 10  9  0  0  0  0  0  0  0  0  1 V2000
    6.2720   -1.0100   -6.3990 S   0  0  0  0  0
    7.1950   -0.7700   -7.5030 O   0  0  0  0  0
    7.3290   -1.0840   -4.9740 C   0  0  0  0  0
    5.8680   -2.7120   -6.5030 C   0  0  0  0  0
    6.7487   -1.4279   -4.0934 H   0  0  0  0  0
    7.7324   -0.0725   -4.7626 H   0  0  0  0  0
    8.1746   -1.7800   -5.1523 H   0  0  0  0  0
    5.3100   -3.0235   -5.5965 H   0  0  0  0  0
    6.7866   -3.3271   -6.5974 H   0  0  0  0  0
    5.2270   -2.8855   -7.3916 H   0  0  0  0  0
  1  2  2  0  0  0
  1  3  1  0  0  0
  1  4  1  0  0  0
  3  5  1  0  0  0
  3  6  1  0  0  0
  3  7  1  0  0  0
  4  8  1  0  0  0
  4  9  1  0  0  0
  4 10  1  0  0  0
M  END
$$$$
