DMS_2_A_404
  -ISIS-            3D

 10  9  0  0  0  0  0  0  0  0  1 V2000
  -20.6480   14.2670   -7.5720 S   0  0  0  0  0
  -21.6510   15.3280   -7.7310 O   0  0  0  0  0
  -20.9150   13.2030   -8.9520 C   0  0  0  0  0
  -21.3190   13.2100   -6.3260 C   0  0  0  0  0
  -20.3220   12.2734   -8.8318 H   0  0  0  0  0
  -20.5884   13.7152   -9.8802 H   0  0  0  0  0
  -21.9900   12.9440   -9.0439 H   0  0  0  0  0
  -20.7177   12.2806   -6.2563 H   0  0  0  0  0
  -22.3721   12.9502   -6.5597 H   0  0  0  0  0
  -21.2858   13.7294   -5.3464 H   0  0  0  0  0
  1  2  2  0  0  0
  1  3  1  0  0  0
  1  4  1  0  0  0
  3  5  1  0  0  0
  3  6  1  0  0  0
  3  7  1  0  0  0
  4  8  1  0  0  0
  4  9  1  0  0  0
  4 10  1  0  0  0
M  END
$$$$
