DMS_1_B_802
  -ISIS-            3D

 10  9  0  0  0  0  0  0  0  0  1 V2000
   47.8640  -56.1260  -36.1300 S   0  0  0  0  0
   48.3850  -55.5950  -34.8660 O   0  0  0  0  0
   46.3420  -57.0040  -36.1550 C   0  0  0  0  0
   48.7620  -55.8970  -37.6180 C   0  0  0  0  0
   46.1101  -57.3248  -37.1908 H   0  0  0  0  0
   45.5285  -56.3475  -35.7847 H   0  0  0  0  0
   46.4185  -57.8983  -35.5036 H   0  0  0  0  0
   48.2148  -56.3619  -38.4630 H   0  0  0  0  0
   49.7611  -56.3694  -37.5256 H   0  0  0  0  0
   48.8848  -54.8125  -37.8148 H   0  0  0  0  0
  1  2  2  0  0  0
  1  3  1  0  0  0
  1  4  1  0  0  0
  3  5  1  0  0  0
  3  6  1  0  0  0
  3  7  1  0  0  0
  4  8  1  0  0  0
  4  9  1  0  0  0
  4 10  1  0  0  0
M  END
$$$$
