DMS_1_B_812
  -ISIS-            3D

 10  9  0  0  0  0  0  0  0  0  1 V2000
   48.1080  -39.5670  -17.7680 S   0  0  0  0  0
   48.1110  -39.4870  -16.3050 O   0  0  0  0  0
   49.0250  -40.8200  -18.5820 C   0  0  0  0  0
   47.1900  -38.4030  -18.7140 C   0  0  0  0  0
   48.9022  -40.7230  -19.6797 H   0  0  0  0  0
   48.6597  -41.8165  -18.2601 H   0  0  0  0  0
   50.0992  -40.7212  -18.3244 H   0  0  0  0  0
   47.3068  -38.6217  -19.7948 H   0  0  0  0  0
   47.5622  -37.3793  -18.5056 H   0  0  0  0  0
   46.1168  -38.4672  -18.4417 H   0  0  0  0  0
  1  2  2  0  0  0
  1  3  1  0  0  0
  1  4  1  0  0  0
  3  5  1  0  0  0
  3  6  1  0  0  0
  3  7  1  0  0  0
  4  8  1  0  0  0
  4  9  1  0  0  0
  4 10  1  0  0  0
M  END
$$$$
