DMS_1_A_803
  -ISIS-            3D

 10  9  0  0  0  0  0  0  0  0  1 V2000
   36.1850  -32.6860   -7.3870 S   0  0  0  0  0
   35.4030  -33.7420   -8.0290 O   0  0  0  0  0
   37.7600  -33.0640   -6.7120 C   0  0  0  0  0
   35.5430  -31.0550   -7.2720 C   0  0  0  0  0
   38.5335  -32.4375   -7.2010 H   0  0  0  0  0
   37.9941  -34.1346   -6.8823 H   0  0  0  0  0
   37.7556  -32.8588   -5.6221 H   0  0  0  0  0
   36.2324  -30.3483   -7.7772 H   0  0  0  0  0
   35.4416  -30.7707   -6.2049 H   0  0  0  0  0
   34.5481  -31.0086   -7.7599 H   0  0  0  0  0
  1  2  2  0  0  0
  1  3  1  0  0  0
  1  4  1  0  0  0
  3  5  1  0  0  0
  3  6  1  0  0  0
  3  7  1  0  0  0
  4  8  1  0  0  0
  4  9  1  0  0  0
  4 10  1  0  0  0
M  END
$$$$
