EDO_2_A_410
  -ISIS-            3D

 10  9  0  0  0  0  0  0  0  0  1 V2000
 -107.1400   55.4730   46.2210 C   0  0  0  0  0
 -108.5450   55.2270   46.3560 O   0  0  0  0  0
 -106.4060   54.7400   47.3310 C   0  0  0  0  0
 -106.9780   53.4330   47.4110 O   0  0  0  0  0
 -106.9387   56.5636   46.2652 H   0  0  0  0  0
 -106.7946   55.1061   45.2308 H   0  0  0  0  0
 -108.9760   55.5100   45.5599 H   0  0  0  0  0
 -106.5418   55.2685   48.2985 H   0  0  0  0  0
 -105.3182   54.6738   47.1222 H   0  0  0  0  0
 -106.6949   53.0315   48.2223 H   0  0  0  0  0
  1  2  1  0  0  0
  1  3  1  0  0  0
  1  5  1  0  0  0
  1  6  1  0  0  0
  2  7  1  0  0  0
  3  4  1  0  0  0
  3  8  1  0  0  0
  3  9  1  0  0  0
  4 10  1  0  0  0
M  END
$$$$
