EDO_2_A_403
  -ISIS-            3D

 10  9  0  0  0  0  0  0  0  0  1 V2000
  -86.6920   68.0960   39.0470 C   0  0  0  0  0
  -86.5190   68.7100   37.7690 O   0  0  0  0  0
  -86.4870   66.5960   38.9140 C   0  0  0  0  0
  -87.1310   65.9410   40.0060 O   0  0  0  0  0
  -87.7244   68.3122   39.3929 H   0  0  0  0  0
  -85.9975   68.5368   39.7925 H   0  0  0  0  0
  -85.5941   68.8705   37.6357 H   0  0  0  0  0
  -85.4060   66.3439   38.9001 H   0  0  0  0  0
  -86.9313   66.2301   37.9637 H   0  0  0  0  0
  -87.0606   65.0043   39.8760 H   0  0  0  0  0
  1  2  1  0  0  0
  1  3  1  0  0  0
  1  5  1  0  0  0
  1  6  1  0  0  0
  2  7  1  0  0  0
  3  4  1  0  0  0
  3  8  1  0  0  0
  3  9  1  0  0  0
  4 10  1  0  0  0
M  END
$$$$
