EDO_2_B_405
  -ISIS-            3D

 10  9  0  0  0  0  0  0  0  0  1 V2000
 -114.9650   67.6110  -33.0620 C   0  0  0  0  0
 -113.7130   68.2930  -32.9320 O   0  0  0  0  0
 -115.4530   67.1890  -31.6800 C   0  0  0  0  0
 -114.8800   65.9290  -31.3190 O   0  0  0  0  0
 -114.8646   66.7452  -33.7488 H   0  0  0  0  0
 -115.6922   68.3107  -33.5240 H   0  0  0  0  0
 -113.1055   67.6888  -32.5238 H   0  0  0  0  0
 -116.5606   67.1013  -31.6750 H   0  0  0  0  0
 -115.1909   67.9473  -30.9139 H   0  0  0  0  0
 -115.4201   65.2361  -31.6759 H   0  0  0  0  0
  1  2  1  0  0  0
  1  3  1  0  0  0
  1  5  1  0  0  0
  1  6  1  0  0  0
  2  7  1  0  0  0
  3  4  1  0  0  0
  3  8  1  0  0  0
  3  9  1  0  0  0
  4 10  1  0  0  0
M  END
$$$$
