EDO_1_A_401
  -ISIS-            3D

 10  9  0  0  0  0  0  0  0  0  1 V2000
  -65.7180   36.5450   15.7480 C   0  0  0  0  0
  -65.8990   35.1650   15.4430 O   0  0  0  0  0
  -66.0440   37.2570   14.4570 C   0  0  0  0  0
  -67.4600   37.2850   14.2550 O   0  0  0  0  0
  -64.6646   36.7280   16.0473 H   0  0  0  0  0
  -66.3824   36.8595   16.5792 H   0  0  0  0  0
  -65.6895   34.6607   16.2178 H   0  0  0  0  0
  -65.5414   36.7870   13.5857 H   0  0  0  0  0
  -65.6832   38.3056   14.5061 H   0  0  0  0  0
  -67.7449   36.3792   14.2408 H   0  0  0  0  0
  1  2  1  0  0  0
  1  3  1  0  0  0
  1  5  1  0  0  0
  1  6  1  0  0  0
  2  7  1  0  0  0
  3  4  1  0  0  0
  3  8  1  0  0  0
  3  9  1  0  0  0
  4 10  1  0  0  0
M  END
$$$$
