EDO_2_A_404
  -ISIS-            3D

 10  9  0  0  0  0  0  0  0  0  1 V2000
 -121.0020   42.3900   36.0650 C   0  0  0  0  0
 -120.4730   42.3980   37.4040 O   0  0  0  0  0
 -121.1640   41.0080   35.4370 C   0  0  0  0  0
 -121.9020   40.1440   36.3270 O   0  0  0  0  0
 -120.3430   43.0144   35.4263 H   0  0  0  0  0
 -121.9886   42.9007   36.0809 H   0  0  0  0  0
 -120.9088   41.6865   37.8587 H   0  0  0  0  0
 -120.1656   40.5624   35.2414 H   0  0  0  0  0
 -121.6932   41.0844   34.4637 H   0  0  0  0  0
 -121.9956   39.2994   35.9072 H   0  0  0  0  0
  1  2  1  0  0  0
  1  3  1  0  0  0
  1  5  1  0  0  0
  1  6  1  0  0  0
  2  7  1  0  0  0
  3  4  1  0  0  0
  3  8  1  0  0  0
  3  9  1  0  0  0
  4 10  1  0  0  0
M  END
$$$$
