EDO_1_B_406
  -ISIS-            3D

 10  9  0  0  0  0  0  0  0  0  1 V2000
  -42.7620   59.9310  -32.0200 C   0  0  0  0  0
  -42.5870   58.8410  -31.1070 O   0  0  0  0  0
  -42.8910   61.2210  -31.2210 C   0  0  0  0  0
  -44.1330   61.2060  -30.5150 O   0  0  0  0  0
  -43.6624   59.7651  -32.6484 H   0  0  0  0  0
  -41.8836   59.9845  -32.6972 H   0  0  0  0  0
  -42.6484   58.0297  -31.5941 H   0  0  0  0  0
  -42.8462   62.1010  -31.8976 H   0  0  0  0  0
  -42.0571   61.3218  -30.4962 H   0  0  0  0  0
  -44.7057   61.8648  -30.8859 H   0  0  0  0  0
  1  2  1  0  0  0
  1  3  1  0  0  0
  1  5  1  0  0  0
  1  6  1  0  0  0
  2  7  1  0  0  0
  3  4  1  0  0  0
  3  8  1  0  0  0
  3  9  1  0  0  0
  4 10  1  0  0  0
M  END
$$$$
