EDO_3_B_412
  -ISIS-            3D

 10  9  0  0  0  0  0  0  0  0  1 V2000
  -96.6580   12.8310  -30.8820 C   0  0  0  0  0
  -97.2630   12.4210  -29.6450 O   0  0  0  0  0
  -95.3510   12.0750  -31.1180 C   0  0  0  0  0
  -95.5910   10.6590  -31.0310 O   0  0  0  0  0
  -96.4663   13.9246  -30.8584 H   0  0  0  0  0
  -97.3641   12.6369  -31.7173 H   0  0  0  0  0
  -98.0646   12.9137  -29.5307 H   0  0  0  0  0
  -94.5913   12.3644  -30.3618 H   0  0  0  0  0
  -94.9319   12.3139  -32.1169 H   0  0  0  0  0
  -96.1318   10.5303  -30.2598 H   0  0  0  0  0
  1  2  1  0  0  0
  1  3  1  0  0  0
  1  5  1  0  0  0
  1  6  1  0  0  0
  2  7  1  0  0  0
  3  4  1  0  0  0
  3  8  1  0  0  0
  3  9  1  0  0  0
  4 10  1  0  0  0
M  END
$$$$
