EDO_3_B_401
  -ISIS-            3D

 10  9  0  0  0  0  0  0  0  0  1 V2000
  -70.8640   32.1850  -14.9390 C   0  0  0  0  0
  -72.1720   32.6260  -14.5000 O   0  0  0  0  0
  -70.1720   33.2120  -15.8530 C   0  0  0  0  0
  -68.8500   33.5740  -15.3850 O   0  0  0  0  0
  -70.9661   31.2160  -15.4722 H   0  0  0  0  0
  -70.2361   31.9905  -14.0439 H   0  0  0  0  0
  -72.5504   31.9408  -13.9648 H   0  0  0  0  0
  -70.7902   34.1301  -15.9422 H   0  0  0  0  0
  -70.0786   32.7993  -16.8790 H   0  0  0  0  0
  -68.9531   34.1929  -14.6742 H   0  0  0  0  0
  1  2  1  0  0  0
  1  3  1  0  0  0
  1  5  1  0  0  0
  1  6  1  0  0  0
  2  7  1  0  0  0
  3  4  1  0  0  0
  3  8  1  0  0  0
  3  9  1  0  0  0
  4 10  1  0  0  0
M  END
$$$$
