EDO_3_A_404
  -ISIS-            3D

 10  9  0  0  0  0  0  0  0  0  1 V2000
  -51.6010    4.5970   36.0650 C   0  0  0  0  0
  -51.8730    5.0510   37.4040 O   0  0  0  0  0
  -50.3230    5.1480   35.4370 C   0  0  0  0  0
  -49.2070    4.9400   36.3270 O   0  0  0  0  0
  -52.4707    4.8569   35.4261 H   0  0  0  0  0
  -51.5512    3.4872   36.0797 H   0  0  0  0  0
  -51.0405    5.0225   37.8613 H   0  0  0  0  0
  -50.4365    6.2356   35.2427 H   0  0  0  0  0
  -50.1246    4.6526   34.4632 H   0  0  0  0  0
  -48.4297    5.2870   35.9102 H   0  0  0  0  0
  1  2  1  0  0  0
  1  3  1  0  0  0
  1  5  1  0  0  0
  1  6  1  0  0  0
  2  7  1  0  0  0
  3  4  1  0  0  0
  3  8  1  0  0  0
  3  9  1  0  0  0
  4 10  1  0  0  0
M  END
$$$$
