EDO_2_B_406
  -ISIS-            3D

 10  9  0  0  0  0  0  0  0  0  1 V2000
 -105.9120   63.5840  -32.0200 C   0  0  0  0  0
 -105.0560   64.2800  -31.1070 O   0  0  0  0  0
 -106.9650   62.8280  -31.2210 C   0  0  0  0  0
 -106.3320   61.7590  -30.5150 O   0  0  0  0  0
 -105.3139   62.9008  -32.6582 H   0  0  0  0  0
 -106.3943   64.3255  -32.6900 H   0  0  0  0  0
 -104.7878   63.6483  -30.4500 H   0  0  0  0  0
 -107.7519   62.4235  -31.8925 H   0  0  0  0  0
 -107.4695   63.4996  -30.4960 H   0  0  0  0  0
 -106.2938   61.0010  -31.0834 H   0  0  0  0  0
  1  2  1  0  0  0
  1  3  1  0  0  0
  1  5  1  0  0  0
  1  6  1  0  0  0
  2  7  1  0  0  0
  3  4  1  0  0  0
  3  8  1  0  0  0
  3  9  1  0  0  0
  4 10  1  0  0  0
M  END
$$$$
