EDO_1_B_413
  -ISIS-            3D

 10  9  0  0  0  0  0  0  0  0  1 V2000
  -41.4700   66.8300  -23.5140 C   0  0  0  0  0
  -40.9120   68.1280  -23.2990 O   0  0  0  0  0
  -41.0770   66.4310  -24.9270 C   0  0  0  0  0
  -42.2140   66.5410  -25.7900 O   0  0  0  0  0
  -42.5715   66.8483  -23.3784 H   0  0  0  0  0
  -41.0439   66.1223  -22.7717 H   0  0  0  0  0
  -41.2462   68.4607  -22.4766 H   0  0  0  0  0
  -40.7282   65.3765  -24.9364 H   0  0  0  0  0
  -40.2413   67.0515  -25.3126 H   0  0  0  0  0
  -41.9199   66.4226  -26.6835 H   0  0  0  0  0
  1  2  1  0  0  0
  1  3  1  0  0  0
  1  5  1  0  0  0
  1  6  1  0  0  0
  2  7  1  0  0  0
  3  4  1  0  0  0
  3  8  1  0  0  0
  3  9  1  0  0  0
  4 10  1  0  0  0
M  END
$$$$
