EDO_3_A_407
  -ISIS-            3D

 10  9  0  0  0  0  0  0  0  0  1 V2000
  -78.5750   15.9670   12.8540 C   0  0  0  0  0
  -77.5550   15.9540   13.8600 O   0  0  0  0  0
  -79.3470   14.6530   12.8870 C   0  0  0  0  0
  -79.0210   13.8430   11.7500 O   0  0  0  0  0
  -78.1301   16.1602   11.8558 H   0  0  0  0  0
  -79.2590   16.8143   13.0690 H   0  0  0  0  0
  -76.8584   15.3868   13.5554 H   0  0  0  0  0
  -80.4381   14.8623   12.8712 H   0  0  0  0  0
  -79.1428   14.0894   13.8213 H   0  0  0  0  0
  -79.5336   13.0469   11.7957 H   0  0  0  0  0
  1  2  1  0  0  0
  1  3  1  0  0  0
  1  5  1  0  0  0
  1  6  1  0  0  0
  2  7  1  0  0  0
  3  4  1  0  0  0
  3  8  1  0  0  0
  3  9  1  0  0  0
  4 10  1  0  0  0
M  END
$$$$
