DMS_1_A_1004
  -ISIS-            3D

 10  9  0  0  0  0  0  0  0  0  1 V2000
    2.5250  -18.7730    8.0170 S   0  0  0  0  0
    3.7350  -18.7840    8.9050 O   0  0  0  0  0
    1.3030  -17.9070    8.9550 C   0  0  0  0  0
    1.8090  -20.3600    8.3520 C   0  0  0  0  0
    0.3031  -18.0392    8.4931 H   0  0  0  0  0
    1.5476  -16.8250    8.9584 H   0  0  0  0  0
    1.2775  -18.2672   10.0040 H   0  0  0  0  0
    0.7917  -20.4189    7.9135 H   0  0  0  0  0
    1.7532  -20.5493    9.4438 H   0  0  0  0  0
    2.4372  -21.1475    7.8872 H   0  0  0  0  0
  1  2  2  0  0  0
  1  3  1  0  0  0
  1  4  1  0  0  0
  3  5  1  0  0  0
  3  6  1  0  0  0
  3  7  1  0  0  0
  4  8  1  0  0  0
  4  9  1  0  0  0
  4 10  1  0  0  0
M  END
$$$$
