DMS_1_A_1002
  -ISIS-            3D

 10  9  0  0  0  0  0  0  0  0  1 V2000
    7.0460  -28.0320   21.5520 S   0  0  0  0  0
    7.5630  -26.9540   22.3830 O   0  0  0  0  0
    5.7280  -28.6800   22.5390 C   0  0  0  0  0
    6.0580  -27.2720   20.3030 C   0  0  0  0  0
    5.1450  -29.4177   21.9505 H   0  0  0  0  0
    5.0549  -27.8653   22.8768 H   0  0  0  0  0
    6.1511  -29.1902   23.4286 H   0  0  0  0  0
    5.4834  -28.0458   19.7541 H   0  0  0  0  0
    6.7176  -26.7423   19.5854 H   0  0  0  0  0
    5.3551  -26.5408   20.7525 H   0  0  0  0  0
  1  2  2  0  0  0
  1  3  1  0  0  0
  1  4  1  0  0  0
  3  5  1  0  0  0
  3  6  1  0  0  0
  3  7  1  0  0  0
  4  8  1  0  0  0
  4  9  1  0  0  0
  4 10  1  0  0  0
M  END
$$$$
