CMU_2_B_401
  -ISIS-            3D

 25 26  0  0  0  0  0  0  0  0  1 V2000
   71.7950  -74.8420  -23.4960 Cl  0  0  0  0  0
   72.0250  -73.5460  -24.6070 C   0  0  0  0  0
   71.2600  -73.4110  -25.7230 C   0  0  0  0  0
   70.1870  -74.4070  -26.1080 C   0  0  0  0  0
   68.8860  -74.2120  -25.4960 N   0  0  0  0  0
   68.5010  -74.9080  -24.2720 C   0  0  0  0  0
   67.2960  -74.1080  -23.7990 C   0  0  0  0  0
   66.6950  -73.5150  -25.0690 C   0  0  0  0  0
   67.8590  -73.4800  -26.0180 C   0  0  0  0  0
   67.8790  -72.9150  -27.1640 N   0  0  0  0  0
   71.5120  -72.3720  -26.5820 N   0  0  0  0  0
   72.4770  -71.4200  -26.3550 C   0  0  0  0  0
   72.6790  -70.4980  -27.1230 O   0  0  0  0  0
   73.2300  -71.5720  -25.2230 N   0  0  0  0  0
   73.0600  -72.5930  -24.3160 C   0  0  0  0  0
   73.7980  -72.6220  -23.3120 O   0  0  0  0  0
   70.5433  -75.4318  -25.8591 H   0  0  0  0  0
   70.0977  -74.4382  -27.2159 H   0  0  0  0  0
   69.1292  -75.6447  -23.7631 H   0  0  0  0  0
   66.8605  -74.1073  -22.7919 H   0  0  0  0  0
   65.6960  -73.0834  -25.2064 H   0  0  0  0  0
   67.0238  -72.4007  -27.4096 H   0  0  0  0  0
   68.7127  -73.0019  -27.7546 H   0  0  0  0  0
   73.9654  -70.8769  -25.0390 H   0  0  0  0  0
   70.9224  -72.3234  -27.4218 H   0  0  0  0  0
  1  2  1  0  0  0
  2  3  2  0  0  0
  2 15  1  0  0  0
  3  4  1  0  0  0
  3 11  1  0  0  0
  4  5  1  0  0  0
  4 17  1  0  0  0
  4 18  1  0  0  0
  5  6  1  0  0  0
  5  9  2  0  0  0
  6  7  1  0  0  0
  6 19  1  0  0  0
  7  8  1  0  0  0
  7 20  1  0  0  0
  8  9  1  0  0  0
  8 21  1  0  0  0
  9 10  1  0  0  0
 10 22  1  0  0  0
 10 23  1  0  0  0
 11 12  1  0  0  0
 11 25  1  0  0  0
 12 13  2  0  0  0
 12 14  1  0  0  0
 14 15  1  0  0  0
 14 24  1  0  0  0
 15 16  2  0  0  0
M  END
$$$$
