CMU_1_B_401
  -ISIS-            3D

 25 26  0  0  0  0  0  0  0  0  1 V2000
   50.1500  -24.7560  -23.4960 Cl  0  0  0  0  0
   51.1580  -25.6030  -24.6070 C   0  0  0  0  0
   51.6580  -25.0070  -25.7230 C   0  0  0  0  0
   51.3310  -23.5800  -26.1080 C   0  0  0  0  0
   52.1500  -22.5510  -25.4960 N   0  0  0  0  0
   51.7400  -21.8700  -24.2720 C   0  0  0  0  0
   53.0360  -21.2250  -23.7990 C   0  0  0  0  0
   53.8490  -21.0020  -25.0690 C   0  0  0  0  0
   53.2980  -22.0270  -26.0180 C   0  0  0  0  0
   53.7770  -22.3280  -27.1640 N   0  0  0  0  0
   52.4310  -25.7450  -26.5820 N   0  0  0  0  0
   52.7730  -27.0570  -26.3550 C   0  0  0  0  0
   53.4710  -27.6920  -27.1230 O   0  0  0  0  0
   52.2650  -27.6330  -25.2230 N   0  0  0  0  0
   51.4660  -26.9760  -24.3160 C   0  0  0  0  0
   51.0710  -27.6000  -23.3120 O   0  0  0  0  0
   50.2652  -23.3767  -25.8588 H   0  0  0  0  0
   51.3483  -23.4870  -27.2158 H   0  0  0  0  0
   50.7882  -22.0460  -23.7626 H   0  0  0  0  0
   53.2544  -20.8476  -22.7922 H   0  0  0  0  0
   54.7222  -20.3526  -25.2066 H   0  0  0  0  0
   54.6499  -21.8446  -27.4103 H   0  0  0  0  0
   53.2850  -23.0072  -27.7538 H   0  0  0  0  0
   52.4995  -28.6174  -25.0391 H   0  0  0  0  0
   52.7676  -25.2589  -27.4220 H   0  0  0  0  0
  1  2  1  0  0  0
  2  3  2  0  0  0
  2 15  1  0  0  0
  3  4  1  0  0  0
  3 11  1  0  0  0
  4  5  1  0  0  0
  4 17  1  0  0  0
  4 18  1  0  0  0
  5  6  1  0  0  0
  5  9  2  0  0  0
  6  7  1  0  0  0
  6 19  1  0  0  0
  7  8  1  0  0  0
  7 20  1  0  0  0
  8  9  1  0  0  0
  8 21  1  0  0  0
  9 10  1  0  0  0
 10 22  1  0  0  0
 10 23  1  0  0  0
 11 12  1  0  0  0
 11 25  1  0  0  0
 12 13  2  0  0  0
 12 14  1  0  0  0
 14 15  1  0  0  0
 14 24  1  0  0  0
 15 16  2  0  0  0
M  END
$$$$
