CMU_3_A_401
  -ISIS-            3D

 25 26  0  0  0  0  0  0  0  0  1 V2000
   57.2210  -18.0770   23.6500 Cl  0  0  0  0  0
   58.1060  -19.0200   24.7910 C   0  0  0  0  0
   57.5490  -19.4740   25.9490 C   0  0  0  0  0
   56.1270  -19.1410   26.3710 C   0  0  0  0  0
   55.0760  -19.9360   25.7640 N   0  0  0  0  0
   54.3700  -19.4790   24.5750 C   0  0  0  0  0
   53.7440  -20.7560   24.0440 C   0  0  0  0  0
   53.5390  -21.6350   25.2740 C   0  0  0  0  0
   54.5810  -21.1360   26.2320 C   0  0  0  0  0
   54.9140  -21.7000   27.3290 N   0  0  0  0  0
   58.3220  -20.2150   26.8120 N   0  0  0  0  0
   59.6220  -20.5620   26.5450 C   0  0  0  0  0
   60.3120  -21.1970   27.3220 O   0  0  0  0  0
   60.1470  -20.0910   25.3790 N   0  0  0  0  0
   59.4590  -19.3370   24.4620 C   0  0  0  0  0
   60.0560  -18.9840   23.4250 O   0  0  0  0  0
   55.9365  -18.0659   26.1527 H   0  0  0  0  0
   56.0496  -19.1947   27.4793 H   0  0  0  0  0
   54.5242  -18.5011   24.1095 H   0  0  0  0  0
   53.3606  -20.9285   23.0305 H   0  0  0  0  0
   52.8974  -22.5192   25.3724 H   0  0  0  0  0
   54.4428  -22.5918   27.5259 H   0  0  0  0  0
   55.6100  -21.2414   27.9269 H   0  0  0  0  0
   61.1276  -20.3226   25.1717 H   0  0  0  0  0
   57.8718  -20.5148   27.6854 H   0  0  0  0  0
  1  2  1  0  0  0
  2  3  2  0  0  0
  2 15  1  0  0  0
  3  4  1  0  0  0
  3 11  1  0  0  0
  4  5  1  0  0  0
  4 17  1  0  0  0
  4 18  1  0  0  0
  5  6  1  0  0  0
  5  9  1  0  0  0
  6  7  1  0  0  0
  6 19  1  0  0  0
  7  8  1  0  0  0
  7 20  1  0  0  0
  8  9  1  0  0  0
  8 21  1  0  0  0
  9 10  1  0  0  0
 10 22  1  0  0  0
 10 23  1  0  0  0
 11 12  1  0  0  0
 11 25  1  0  0  0
 12 13  2  0  0  0
 12 14  1  0  0  0
 14 15  1  0  0  0
 14 24  1  0  0  0
 15 16  2  0  0  0
M  END
$$$$
