CMU_1_A_401
  -ISIS-            3D

 25 26  0  0  0  0  0  0  0  0  1 V2000
   62.4760  -72.0580   23.6500 Cl  0  0  0  0  0
   62.8510  -70.8200   24.7910 C   0  0  0  0  0
   63.5220  -71.0750   25.9490 C   0  0  0  0  0
   63.9450  -72.4730   26.3710 C   0  0  0  0  0
   65.1590  -72.9860   25.7640 N   0  0  0  0  0
   65.1160  -73.8260   24.5750 C   0  0  0  0  0
   66.5350  -73.7300   24.0440 C   0  0  0  0  0
   67.3980  -73.4680   25.2740 C   0  0  0  0  0
   66.4460  -72.8140   26.2320 C   0  0  0  0  0
   66.7670  -72.2440   27.3290 N   0  0  0  0  0
   63.7780  -70.0350   26.8120 N   0  0  0  0  0
   63.4280  -68.7360   26.5450 C   0  0  0  0  0
   63.6330  -67.8210   27.3220 O   0  0  0  0  0
   62.7570  -68.5170   25.3790 N   0  0  0  0  0
   62.4490  -69.4900   24.4620 C   0  0  0  0  0
   61.8440  -69.1490   23.4250 O   0  0  0  0  0
   63.1093  -73.1755   26.1522 H   0  0  0  0  0
   64.0297  -72.5133   27.4794 H   0  0  0  0  0
   64.1918  -74.1812   24.1100 H   0  0  0  0  0
   66.8762  -73.9761   23.0307 H   0  0  0  0  0
   68.4844  -73.5822   25.3726 H   0  0  0  0  0
   67.7748  -72.2039   27.5261 H   0  0  0  0  0
   66.0211  -71.8727   27.9275 H   0  0  0  0  0
   62.4665  -67.5522   25.1718 H   0  0  0  0  0
   64.2634  -70.2747   27.6850 H   0  0  0  0  0
  1  2  1  0  0  0
  2  3  2  0  0  0
  2 15  1  0  0  0
  3  4  1  0  0  0
  3 11  1  0  0  0
  4  5  1  0  0  0
  4 17  1  0  0  0
  4 18  1  0  0  0
  5  6  1  0  0  0
  5  9  1  0  0  0
  6  7  1  0  0  0
  6 19  1  0  0  0
  7  8  1  0  0  0
  7 20  1  0  0  0
  8  9  1  0  0  0
  8 21  1  0  0  0
  9 10  1  0  0  0
 10 22  1  0  0  0
 10 23  1  0  0  0
 11 12  1  0  0  0
 11 25  1  0  0  0
 12 13  2  0  0  0
 12 14  1  0  0  0
 14 15  1  0  0  0
 14 24  1  0  0  0
 15 16  2  0  0  0
M  END
$$$$
