EDO_3_A_408
  -ISIS-            3D

 10  9  0  0  0  0  0  0  0  0  1 V2000
   78.8490   -8.0940   18.8460 C   0  0  0  0  0
   79.2000   -8.5710   17.5230 O   0  0  0  0  0
   79.9460   -7.2760   19.5220 C   0  0  0  0  0
   79.5180   -6.9450   20.8550 O   0  0  0  0  0
   78.6017   -8.9712   19.4820 H   0  0  0  0  0
   77.9246   -7.4819   18.7720 H   0  0  0  0  0
   78.4666   -9.0688   17.1869 H   0  0  0  0  0
   80.1474   -6.3471   18.9484 H   0  0  0  0  0
   80.8890   -7.8604   19.5681 H   0  0  0  0  0
   80.2077   -6.4430   21.2684 H   0  0  0  0  0
  1  2  1  0  0  0
  1  3  1  0  0  0
  1  5  1  0  0  0
  1  6  1  0  0  0
  2  7  1  0  0  0
  3  4  1  0  0  0
  3  8  1  0  0  0
  3  9  1  0  0  0
  4 10  1  0  0  0
M  END
$$$$
