EDO_2_A_405
  -ISIS-            3D

 10  9  0  0  0  0  0  0  0  0  1 V2000
   76.7660  -63.6090    0.0340 C   0  0  0  0  0
   76.1730  -64.5180   -0.9110 O   0  0  0  0  0
   77.4950  -64.2860    1.1900 C   0  0  0  0  0
   78.3970  -65.3030    0.6930 O   0  0  0  0  0
   75.9710  -62.9424    0.4283 H   0  0  0  0  0
   77.4762  -62.9548   -0.5151 H   0  0  0  0  0
   76.7492  -65.2730   -0.9483 H   0  0  0  0  0
   76.7587  -64.7739    1.8622 H   0  0  0  0  0
   78.0501  -63.5437    1.8014 H   0  0  0  0  0
   79.2441  -64.9035    0.5447 H   0  0  0  0  0
  1  2  1  0  0  0
  1  3  1  0  0  0
  1  5  1  0  0  0
  1  6  1  0  0  0
  2  7  1  0  0  0
  3  4  1  0  0  0
  3  8  1  0  0  0
  3  9  1  0  0  0
  4 10  1  0  0  0
M  END
$$$$
