EDO_1_A_406
  -ISIS-            3D

 10  9  0  0  0  0  0  0  0  0  1 V2000
   50.8330  -51.6040    9.2860 C   0  0  0  0  0
   50.8910  -50.2330    8.8510 O   0  0  0  0  0
   50.7460  -51.6890   10.8080 C   0  0  0  0  0
   51.9440  -51.1170   11.3790 O   0  0  0  0  0
   51.7308  -52.1473    8.9220 H   0  0  0  0  0
   49.9457  -52.0939    8.8316 H   0  0  0  0  0
   50.9378  -50.2255    7.9044 H   0  0  0  0  0
   50.6585  -52.7447   11.1375 H   0  0  0  0  0
   49.8550  -51.1460   11.1866 H   0  0  0  0  0
   52.0517  -50.2659   10.9705 H   0  0  0  0  0
  1  2  1  0  0  0
  1  3  1  0  0  0
  1  5  1  0  0  0
  1  6  1  0  0  0
  2  7  1  0  0  0
  3  4  1  0  0  0
  3  8  1  0  0  0
  3  9  1  0  0  0
  4 10  1  0  0  0
M  END
$$$$
