EDO_3_A_407
  -ISIS-            3D

 10  9  0  0  0  0  0  0  0  0  1 V2000
   96.1930  -20.4650   36.2730 C   0  0  0  0  0
   94.7890  -20.3450   36.0350 O   0  0  0  0  0
   96.8470  -20.9910   35.0030 C   0  0  0  0  0
   98.1840  -20.4850   34.8970 O   0  0  0  0  0
   96.3697  -21.1533   37.1246 H   0  0  0  0  0
   96.6067  -19.4742   36.5572 H   0  0  0  0  0
   94.6188  -19.4860   35.6712 H   0  0  0  0  0
   96.2776  -20.6630   34.1073 H   0  0  0  0  0
   96.8563  -22.1013   34.9995 H   0  0  0  0  0
   98.5856  -20.8669   34.1278 H   0  0  0  0  0
  1  2  1  0  0  0
  1  3  1  0  0  0
  1  5  1  0  0  0
  1  6  1  0  0  0
  2  7  1  0  0  0
  3  4  1  0  0  0
  3  8  1  0  0  0
  3  9  1  0  0  0
  4 10  1  0  0  0
M  END
$$$$
