EDO_1_B_407
  -ISIS-            3D

 10  9  0  0  0  0  0  0  0  0  1 V2000
   67.3810  -51.5500  -14.3750 C   0  0  0  0  0
   67.6670  -52.9670  -14.7840 O   0  0  0  0  0
   68.7260  -51.5860  -13.7800 C   0  0  0  0  0
   69.7880  -50.5400  -14.0120 O   0  0  0  0  0
   66.5333  -51.4951  -13.6635 H   0  0  0  0  0
   67.2857  -50.8931  -15.2617 H   0  0  0  0  0
   66.8858  -53.3012  -15.2050 H   0  0  0  0  0
   69.2766  -52.5509  -13.8594 H   0  0  0  0  0
   68.5424  -51.5350  -12.6821 H   0  0  0  0  0
   70.1678  -50.7217  -14.8614 H   0  0  0  0  0
  1  2  1  0  0  0
  1  3  1  0  0  0
  1  5  1  0  0  0
  1  6  1  0  0  0
  2  7  1  0  0  0
  3  4  1  0  0  0
  3  8  1  0  0  0
  3  9  1  0  0  0
  4 10  1  0  0  0
M  END
$$$$
