EDO_2_B_403
  -ISIS-            3D

 10  9  0  0  0  0  0  0  0  0  1 V2000
  114.4940  -71.1720  -26.9480 C   0  0  0  0  0
  115.8840  -70.8360  -26.8420 O   0  0  0  0  0
  114.1280  -71.3760  -28.4080 C   0  0  0  0  0
  114.2770  -70.1230  -29.1130 O   0  0  0  0  0
  113.8782  -70.3695  -26.4907 H   0  0  0  0  0
  114.3071  -72.0999  -26.3691 H   0  0  0  0  0
  116.0268  -70.1066  -27.4340 H   0  0  0  0  0
  113.0766  -71.7232  -28.4939 H   0  0  0  0  0
  114.7762  -72.1489  -28.8721 H   0  0  0  0  0
  114.0373  -70.2654  -30.0189 H   0  0  0  0  0
  1  2  1  0  0  0
  1  3  1  0  0  0
  1  5  1  0  0  0
  1  6  1  0  0  0
  2  7  1  0  0  0
  3  4  1  0  0  0
  3  8  1  0  0  0
  3  9  1  0  0  0
  4 10  1  0  0  0
M  END
$$$$
