EDO_3_B_403
  -ISIS-            3D

 10  9  0  0  0  0  0  0  0  0  1 V2000
   79.8210    4.0900  -26.9480 C   0  0  0  0  0
   78.8350    5.1260  -26.8420 O   0  0  0  0  0
   80.1810    3.8740  -28.4080 C   0  0  0  0  0
   79.0220    3.3770  -29.1130 O   0  0  0  0  0
   79.4347    3.1557  -26.4895 H   0  0  0  0  0
   80.7185    4.3929  -26.3699 H   0  0  0  0  0
   78.1323    4.8854  -27.4345 H   0  0  0  0  0
   81.0070    3.1364  -28.4929 H   0  0  0  0  0
   80.5274    4.8213  -28.8725 H   0  0  0  0  0
   79.2656    3.2398  -30.0188 H   0  0  0  0  0
  1  2  1  0  0  0
  1  3  1  0  0  0
  1  5  1  0  0  0
  1  6  1  0  0  0
  2  7  1  0  0  0
  3  4  1  0  0  0
  3  8  1  0  0  0
  3  9  1  0  0  0
  4 10  1  0  0  0
M  END
$$$$
