EDO_1_A_404
  -ISIS-            3D

 10  9  0  0  0  0  0  0  0  0  1 V2000
   67.7460  -24.5140   -0.8780 C   0  0  0  0  0
   67.5740  -23.1080   -0.5480 O   0  0  0  0  0
   66.7910  -25.3440   -0.0060 C   0  0  0  0  0
   66.1610  -24.6420    1.1010 O   0  0  0  0  0
   68.8010  -24.7975   -0.6820 H   0  0  0  0  0
   67.5522  -24.6685   -1.9589 H   0  0  0  0  0
   67.1779  -23.0638    0.3142 H   0  0  0  0  0
   67.3337  -26.2275    0.3930 H   0  0  0  0  0
   65.9850  -25.7491   -0.6555 H   0  0  0  0  0
   65.5749  -25.2453    1.5383 H   0  0  0  0  0
  1  2  1  0  0  0
  1  3  1  0  0  0
  1  5  1  0  0  0
  1  6  1  0  0  0
  2  7  1  0  0  0
  3  4  1  0  0  0
  3  8  1  0  0  0
  3  9  1  0  0  0
  4 10  1  0  0  0
M  END
$$$$
