EDO_3_A_405
  -ISIS-            3D

 10  9  0  0  0  0  0  0  0  0  1 V2000
   92.1360  -32.3650    0.0340 C   0  0  0  0  0
   93.2200  -32.4240   -0.9110 O   0  0  0  0  0
   92.3570  -31.3950    1.1900 C   0  0  0  0  0
   92.7870  -30.1060    0.6930 O   0  0  0  0  0
   91.9511  -33.3845    0.4344 H   0  0  0  0  0
   91.2123  -32.0672   -0.5080 H   0  0  0  0  0
   92.9286  -32.9113   -1.6706 H   0  0  0  0  0
   93.1352  -31.7998    1.8717 H   0  0  0  0  0
   91.4259  -31.2744    1.7826 H   0  0  0  0  0
   93.0782  -29.5858    1.4305 H   0  0  0  0  0
  1  2  1  0  0  0
  1  3  1  0  0  0
  1  5  1  0  0  0
  1  6  1  0  0  0
  2  7  1  0  0  0
  3  4  1  0  0  0
  3  8  1  0  0  0
  3  9  1  0  0  0
  4 10  1  0  0  0
M  END
$$$$
