EDO_1_B_403
  -ISIS-            3D

 10  9  0  0  0  0  0  0  0  0  1 V2000
   31.9790  -63.5690  -26.9480 C   0  0  0  0  0
   31.5750  -64.9400  -26.8420 O   0  0  0  0  0
   31.9860  -63.1500  -28.4080 C   0  0  0  0  0
   32.9960  -63.9050  -29.1130 O   0  0  0  0  0
   32.9817  -63.4369  -26.4903 H   0  0  0  0  0
   31.2687  -62.9430  -26.3694 H   0  0  0  0  0
   32.1355  -65.4287  -27.4336 H   0  0  0  0  0
   32.2111  -62.0659  -28.4936 H   0  0  0  0  0
   30.9925  -63.3245  -28.8723 H   0  0  0  0  0
   32.9935  -63.6250  -30.0186 H   0  0  0  0  0
  1  2  1  0  0  0
  1  3  1  0  0  0
  1  5  1  0  0  0
  1  6  1  0  0  0
  2  7  1  0  0  0
  3  4  1  0  0  0
  3  8  1  0  0  0
  3  9  1  0  0  0
  4 10  1  0  0  0
M  END
$$$$
