DMS_1_A_403
  -ISIS-            3D

 10  9  0  0  0  0  0  0  0  0  1 V2000
    6.0990   -1.0340   -6.3200 S   0  0  0  0  0
    6.9550   -0.8090   -7.5270 O   0  0  0  0  0
    7.1650   -0.8870   -4.9060 C   0  0  0  0  0
    5.8150   -2.7790   -6.2160 C   0  0  0  0  0
    6.6148   -1.1770   -3.9875 H   0  0  0  0  0
    7.4971    0.1667   -4.8061 H   0  0  0  0  0
    8.0566   -1.5364   -5.0242 H   0  0  0  0  0
    5.2990   -3.0212   -5.2644 H   0  0  0  0  0
    6.7754   -3.3318   -6.2670 H   0  0  0  0  0
    5.1714   -3.0964   -7.0619 H   0  0  0  0  0
  1  2  2  0  0  0
  1  3  1  0  0  0
  1  4  1  0  0  0
  3  5  1  0  0  0
  3  6  1  0  0  0
  3  7  1  0  0  0
  4  8  1  0  0  0
  4  9  1  0  0  0
  4 10  1  0  0  0
M  END
$$$$
