EDO_2_C_402
  -ISIS-            3D

 10  9  0  0  0  0  0  0  0  0  1 V2000
   69.3230   57.2020  -71.7730 C   0  0  0  0  0
   68.7410   55.9370  -72.0980 O   0  0  0  0  0
   70.4880   56.9870  -70.8180 C   0  0  0  0  0
   71.3840   56.0230  -71.3840 O   0  0  0  0  0
   68.5513   57.8534  -71.3139 H   0  0  0  0  0
   69.6651   57.6996  -72.7047 H   0  0  0  0  0
   69.4658   55.3534  -72.2918 H   0  0  0  0  0
   70.1198   56.6201  -69.8364 H   0  0  0  0  0
   71.0248   57.9426  -70.6402 H   0  0  0  0  0
   72.1001   55.8934  -70.7768 H   0  0  0  0  0
  1  2  1  0  0  0
  1  3  1  0  0  0
  1  5  1  0  0  0
  1  6  1  0  0  0
  2  7  1  0  0  0
  3  4  1  0  0  0
  3  8  1  0  0  0
  3  9  1  0  0  0
  4 10  1  0  0  0
M  END
$$$$
