EDO_1_A_402
  -ISIS-            3D

 10  9  0  0  0  0  0  0  0  0  1 V2000
   33.3970   10.5910  -25.2540 C   0  0  0  0  0
   33.4990   11.6180  -24.2620 O   0  0  0  0  0
   33.7630    9.2650  -24.6020 C   0  0  0  0  0
   34.9450    9.4530  -23.8170 O   0  0  0  0  0
   34.0883   10.8218  -26.0916 H   0  0  0  0  0
   32.3672   10.5679  -25.6649 H   0  0  0  0  0
   34.3128   11.4662  -23.7949 H   0  0  0  0  0
   33.9340    8.4831  -25.3713 H   0  0  0  0  0
   32.9364    8.9187  -23.9456 H   0  0  0  0  0
   35.1586    8.6278  -23.4025 H   0  0  0  0  0
  1  2  1  0  0  0
  1  3  1  0  0  0
  1  5  1  0  0  0
  1  6  1  0  0  0
  2  7  1  0  0  0
  3  4  1  0  0  0
  3  8  1  0  0  0
  3  9  1  0  0  0
  4 10  1  0  0  0
M  END
$$$$
