EXB_1_A_201
  -ISIS-            3D

 23 24  0  0  0  0  0  0  0  0  1 V2000
  -43.6250  -33.5000   -1.9770 C   0  0  0  0  0
  -45.7140  -35.3030   -1.5720 C   0  0  0  0  0
  -44.7800  -35.5350   -2.5530 C   0  0  0  0  0
  -43.7370  -34.6360   -2.7570 C   0  0  0  0  0
  -45.6020  -34.1410   -0.7970 C   0  0  0  0  0
  -42.6550  -31.5160    0.8980 C   0  0  0  0  0
  -43.8980  -31.0980    0.0950 C   0  0  0  0  0
  -44.7550  -32.2520   -0.1060 N   0  0  0  0  0
  -44.5710  -33.2490   -0.9890 C   0  0  0  0  0
  -45.8260  -32.5290    0.5870 C   0  0  0  0  0
  -46.3530  -33.6630    0.1750 N   0  0  0  0  0
  -42.9070  -32.1650    2.2730 C   0  0  0  0  0
  -43.1340  -33.3970    2.3730 O   0  0  0  0  0
  -42.8840  -31.4520    3.3120 O   0  0  0  0  0
  -42.7949  -32.7949   -2.1445 H   0  0  0  0  0
  -46.5414  -36.0097   -1.3964 H   0  0  0  0  0
  -44.8551  -36.4392   -3.1808 H   0  0  0  0  0
  -42.9926  -34.8339   -3.5470 H   0  0  0  0  0
  -42.0144  -30.6158    1.0472 H   0  0  0  0  0
  -42.0418  -32.2166    0.2858 H   0  0  0  0  0
  -43.6196  -30.6784   -0.8978 H   0  0  0  0  0
  -44.4708  -30.3133    0.6389 H   0  0  0  0  0
  -46.3054  -31.9803    1.4084 H   0  0  0  0  0
  1  4  2  0  0  0
  1  9  1  0  0  0
  1 15  1  0  0  0
  2  3  2  0  0  0
  2  5  1  0  0  0
  2 16  1  0  0  0
  3  4  1  0  0  0
  3 17  1  0  0  0
  4 18  1  0  0  0
  5  9  2  0  0  0
  5 11  1  0  0  0
  6  7  1  0  0  0
  6 12  1  0  0  0
  6 19  1  0  0  0
  6 20  1  0  0  0
  7  8  1  0  0  0
  7 21  1  0  0  0
  7 22  1  0  0  0
  8  9  1  0  0  0
  8 10  1  0  0  0
 10 11  2  0  0  0
 10 23  1  0  0  0
 12 13  2  0  0  0
 12 14  2  0  0  0
M  END
$$$$
