EDO_2_A_401
  -ISIS-            3D

 10  9  0  0  0  0  0  0  0  0  1 V2000
  -16.4090  -27.6370  -47.3890 C   0  0  0  0  0
  -17.4940  -27.9440  -46.5060 O   0  0  0  0  0
  -15.1410  -28.2400  -46.8070 C   0  0  0  0  0
  -14.0890  -27.2750  -46.8070 O   0  0  0  0  0
  -16.3160  -26.5342  -47.4810 H   0  0  0  0  0
  -16.6151  -28.0425  -48.4015 H   0  0  0  0  0
  -18.2710  -27.5077  -46.8302 H   0  0  0  0  0
  -14.8313  -29.1318  -47.3915 H   0  0  0  0  0
  -15.3131  -28.5795  -45.7634 H   0  0  0  0  0
  -13.3355  -27.6575  -46.3775 H   0  0  0  0  0
  1  2  1  0  0  0
  1  3  1  0  0  0
  1  5  1  0  0  0
  1  6  1  0  0  0
  2  7  1  0  0  0
  3  4  1  0  0  0
  3  8  1  0  0  0
  3  9  1  0  0  0
  4 10  1  0  0  0
M  END
$$$$
