EDO_1_A_403
  -ISIS-            3D

 10  9  0  0  0  0  0  0  0  0  1 V2000
   -8.9320  -27.1560   -7.4380 C   0  0  0  0  0
   -9.3450  -28.3650   -6.7930 O   0  0  0  0  0
   -7.6500  -27.4190   -8.2100 C   0  0  0  0  0
   -6.6440  -27.8420   -7.2840 O   0  0  0  0  0
   -8.7707  -26.3727   -6.6685 H   0  0  0  0  0
   -9.7328  -26.7892   -8.1145 H   0  0  0  0  0
   -9.9356  -28.8300   -7.3712 H   0  0  0  0  0
   -7.3047  -26.4996   -8.7259 H   0  0  0  0  0
   -7.7994  -28.2005   -8.9840 H   0  0  0  0  0
   -7.0552  -28.4779   -6.7094 H   0  0  0  0  0
  1  2  1  0  0  0
  1  3  1  0  0  0
  1  5  1  0  0  0
  1  6  1  0  0  0
  2  7  1  0  0  0
  3  4  1  0  0  0
  3  8  1  0  0  0
  3  9  1  0  0  0
  4 10  1  0  0  0
M  END
$$$$
