EDO_2_B_402
  -ISIS-            3D

 10  9  0  0  0  0  0  0  0  0  1 V2000
   65.7470   48.5500  -18.7240 C   0  0  0  0  0
   64.9400   49.3490  -17.8520 O   0  0  0  0  0
   64.9200   47.3820  -19.2500 C   0  0  0  0  0
   64.3660   46.6590  -18.1450 O   0  0  0  0  0
   66.6365   48.1844  -18.1694 H   0  0  0  0  0
   66.1141   49.1798  -19.5601 H   0  0  0  0  0
   64.4224   48.7438  -17.3324 H   0  0  0  0  0
   65.5377   46.7100  -19.8825 H   0  0  0  0  0
   64.0892   47.7550  -19.8844 H   0  0  0  0  0
   64.9657   45.9636  -17.9089 H   0  0  0  0  0
  1  2  1  0  0  0
  1  3  1  0  0  0
  1  5  1  0  0  0
  1  6  1  0  0  0
  2  7  1  0  0  0
  3  4  1  0  0  0
  3  8  1  0  0  0
  3  9  1  0  0  0
  4 10  1  0  0  0
M  END
$$$$
