AZP_2_A_307
  -ISIS-            3D

 89 90  0  0  0  0  0  0  0  0  1 V2000
  -31.7070    2.7070   30.0280 N   0  0  0  0  0
  -32.6080    3.3380   30.7980 C   0  0  0  0  0
  -32.0770    4.1610   31.8750 O   0  0  0  0  0
  -33.1280    4.7480   32.6510 C   0  0  0  0  0
  -33.8750    5.8790   31.9570 C   0  0  0  0  0
  -33.3850    7.1870   32.0240 C   0  0  0  0  0
  -34.1050    8.2270   31.4080 C   0  0  0  0  0
  -35.3120    7.9540   30.7460 C   0  0  0  0  0
  -35.8020    6.6350   30.6780 C   0  0  0  0  0
  -35.0770    5.5910   31.2690 C   0  0  0  0  0
  -33.8280    3.2800   30.5740 O   0  0  0  0  0
  -32.0190    1.8930   28.8370 C   0  0  0  0  0
  -31.5800    2.7110   27.6330 C   0  0  0  0  0
  -31.5120    1.9280   26.3340 C   0  0  0  0  0
  -32.8900    2.0600   25.6760 C   0  0  0  0  0
  -30.4600    2.5820   25.4210 C   0  0  0  0  0
  -31.2910    0.5970   29.0190 C   0  0  0  0  0
  -30.0670    0.5050   29.1990 O   0  0  0  0  0
  -31.9940   -0.4950   29.0750 N   0  0  0  0  0
  -31.3060   -1.7670   29.2760 C   0  0  0  0  0
  -32.3200   -2.8940   29.1150 C   0  0  0  0  0
  -33.1880   -3.0480   30.3510 C   0  0  0  0  0
  -32.6370   -3.0310   31.6330 C   0  0  0  0  0
  -33.4880   -3.2530   32.7380 C   0  0  0  0  0
  -34.8580   -3.5140   32.5540 C   0  0  0  0  0
  -35.3920   -3.5950   31.2920 C   0  0  0  0  0
  -34.5640   -3.3710   30.1880 C   0  0  0  0  0
  -30.2200   -1.9320   28.2320 C   0  0  0  0  0
  -30.4180   -1.5620   27.1000 O   0  0  0  0  0
  -29.0490   -2.4880   28.5330 N   0  0  0  0  0
  -28.0690   -2.7580   27.4720 N   0  0  0  0  0
  -26.8840   -1.9210   27.3000 C   0  0  0  0  0
  -27.3270   -0.6490   26.6160 C   0  0  0  0  0
  -26.1150    0.1820   26.3350 C   0  0  0  0  0
  -25.9950    0.8560   25.1900 N   0  0  0  0  0
  -25.2420    0.1550   27.1910 O   0  0  0  0  0
  -28.1660   -3.8970   26.7730 C   0  0  0  0  0
  -27.5420   -4.0340   25.7010 O   0  0  0  0  0
  -29.1940   -4.9350   27.2320 C   0  0  0  0  0
  -29.9300   -5.4550   25.9900 C   0  0  0  0  0
  -30.6080   -4.2910   25.5190 O   0  0  0  0  0
  -31.0230   -6.4550   26.3670 C   0  0  0  0  0
  -30.9350   -7.6780   26.2630 O   0  0  0  0  0
  -32.2480   -5.9150   26.8830 O   0  0  0  0  0
  -33.1020   -6.9430   27.4210 C   0  0  0  0  0
  -33.9810   -6.1150   28.3490 C   0  0  0  0  0
  -30.7154    2.7878   30.2914 H   0  0  0  0  0
  -32.6845    5.1521   33.5853 H   0  0  0  0  0
  -33.8451    3.9745   32.9974 H   0  0  0  0  0
  -32.4432    7.4104   32.5529 H   0  0  0  0  0
  -33.7227    9.2610   31.4511 H   0  0  0  0  0
  -35.8789    8.7748   30.2747 H   0  0  0  0  0
  -36.7518    6.4240   30.1580 H   0  0  0  0  0
  -35.4850    4.5706   31.2131 H   0  0  0  0  0
  -33.1146    1.7030   28.7592 H   0  0  0  0  0
  -30.5568    3.0982   27.8523 H   0  0  0  0  0
  -32.2203    3.6169   27.5294 H   0  0  0  0  0
  -31.2523    0.8587   26.4972 H   0  0  0  0  0
  -32.9295    1.5053   24.7117 H   0  0  0  0  0
  -33.1610    3.1162   25.4530 H   0  0  0  0  0
  -33.6957    1.6380   26.3174 H   0  0  0  0  0
  -30.4261    2.0882   24.4240 H   0  0  0  0  0
  -29.4362    2.5011   25.8511 H   0  0  0  0  0
  -30.6642    3.6623   25.2469 H   0  0  0  0  0
  -33.0187   -0.4713   28.9865 H   0  0  0  0  0
  -30.8246   -1.7928   30.2782 H   0  0  0  0  0
  -31.7784   -3.8561   28.9737 H   0  0  0  0  0
  -32.9354   -2.7424   28.1997 H   0  0  0  0  0
  -31.5655   -2.8577   31.8182 H   0  0  0  0  0
  -33.0729   -3.2224   33.7600 H   0  0  0  0  0
  -35.5044   -3.6707   33.4345 H   0  0  0  0  0
  -36.4606   -3.8284   31.1487 H   0  0  0  0  0
  -34.9976   -3.4379   29.1762 H   0  0  0  0  0
  -28.8399   -2.7159   29.5147 H   0  0  0  0  0
  -26.0931   -2.4234   26.6975 H   0  0  0  0  0
  -26.4320   -1.6972   28.2937 H   0  0  0  0  0
  -28.0352   -0.0740   27.2544 H   0  0  0  0  0
  -27.8566   -0.8960   25.6672 H   0  0  0  0  0
  -29.9233   -4.5507   27.9712 H   0  0  0  0  0
  -28.6581   -5.7755   27.7269 H   0  0  0  0  0
  -29.2491   -5.8834   25.2265 H   0  0  0  0  0
  -29.9741   -3.6879   25.1520 H   0  0  0  0  0
  -32.5620   -7.7137   28.0099 H   0  0  0  0  0
  -33.7079   -7.4310   26.6293 H   0  0  0  0  0
  -34.7716   -6.7426   28.8151 H   0  0  0  0  0
  -34.4967   -5.2930   27.8065 H   0  0  0  0  0
  -33.3919   -5.6728   29.1801 H   0  0  0  0  0
  -25.1296    1.3864   25.0272 H   0  0  0  0  0
  -26.7556    0.8380   24.4987 H   0  0  0  0  0
  1  2  1  0  0  0
  1 12  1  0  0  0
  1 47  1  0  0  0
  2  3  1  0  0  0
  2 11  2  0  0  0
  3  4  1  0  0  0
  4  5  1  0  0  0
  4 48  1  0  0  0
  4 49  1  0  0  0
  5  6  2  0  0  0
  5 10  1  0  0  0
  6  7  1  0  0  0
  6 50  1  0  0  0
  7  8  2  0  0  0
  7 51  1  0  0  0
  8  9  1  0  0  0
  8 52  1  0  0  0
  9 10  2  0  0  0
  9 53  1  0  0  0
 10 54  1  0  0  0
 12 13  1  0  0  0
 12 17  1  0  0  0
 12 55  1  0  0  0
 13 14  1  0  0  0
 13 56  1  0  0  0
 13 57  1  0  0  0
 14 15  1  0  0  0
 14 16  1  0  0  0
 14 58  1  0  0  0
 15 59  1  0  0  0
 15 60  1  0  0  0
 15 61  1  0  0  0
 16 62  1  0  0  0
 16 63  1  0  0  0
 16 64  1  0  0  0
 17 18  2  0  0  0
 17 19  1  0  0  0
 19 20  1  0  0  0
 19 65  1  0  0  0
 20 21  1  0  0  0
 20 28  1  0  0  0
 20 66  1  0  0  0
 21 22  1  0  0  0
 21 67  1  0  0  0
 21 68  1  0  0  0
 22 23  2  0  0  0
 22 27  1  0  0  0
 23 24  1  0  0  0
 23 69  1  0  0  0
 24 25  2  0  0  0
 24 70  1  0  0  0
 25 26  1  0  0  0
 25 71  1  0  0  0
 26 27  2  0  0  0
 26 72  1  0  0  0
 27 73  1  0  0  0
 28 29  2  0  0  0
 28 30  1  0  0  0
 30 31  1  0  0  0
 30 74  1  0  0  0
 31 32  1  0  0  0
 31 37  1  0  0  0
 32 33  1  0  0  0
 32 75  1  0  0  0
 32 76  1  0  0  0
 33 34  1  0  0  0
 33 77  1  0  0  0
 33 78  1  0  0  0
 34 35  1  0  0  0
 34 36  2  0  0  0
 35 88  1  0  0  0
 35 89  1  0  0  0
 37 38  2  0  0  0
 37 39  1  0  0  0
 39 40  1  0  0  0
 39 79  1  0  0  0
 39 80  1  0  0  0
 40 41  1  0  0  0
 40 42  1  0  0  0
 40 81  1  0  0  0
 41 82  1  0  0  0
 42 43  2  0  0  0
 42 44  1  0  0  0
 44 45  1  0  0  0
 45 46  1  0  0  0
 45 83  1  0  0  0
 45 84  1  0  0  0
 46 85  1  0  0  0
 46 86  1  0  0  0
 46 87  1  0  0  0
M  END
$$$$
