DMS_1_A_1005
  -ISIS-            3D

 10  9  0  0  0  0  0  0  0  0  1 V2000
    5.8700    0.5130   18.0080 S   0  0  0  0  0
    7.3220    0.8200   18.0680 O   0  0  0  0  0
    5.0560    1.6550   19.1030 C   0  0  0  0  0
    5.6480   -0.9450   18.9840 C   0  0  0  0  0
    3.9882    1.3754   19.2126 H   0  0  0  0  0
    5.1163    2.6770   18.6760 H   0  0  0  0  0
    5.5442    1.6508   20.0992 H   0  0  0  0  0
    4.5660   -1.1587   19.1021 H   0  0  0  0  0
    6.1104   -0.8170   19.9843 H   0  0  0  0  0
    6.1274   -1.8050   18.4732 H   0  0  0  0  0
  1  2  2  0  0  0
  1  3  1  0  0  0
  1  4  1  0  0  0
  3  5  1  0  0  0
  3  6  1  0  0  0
  3  7  1  0  0  0
  4  8  1  0  0  0
  4  9  1  0  0  0
  4 10  1  0  0  0
M  END
$$$$
