DMS_1_A_1002
  -ISIS-            3D

 10  9  0  0  0  0  0  0  0  0  1 V2000
    7.1270  -28.2390   21.1950 S   0  0  0  0  0
    8.0970  -27.4180   21.9920 O   0  0  0  0  0
    5.8930  -28.8000   22.3360 C   0  0  0  0  0
    6.1190  -27.0930   20.3100 C   0  0  0  0  0
    5.0678  -29.2962   21.7855 H   0  0  0  0  0
    5.4882  -27.9480   22.9203 H   0  0  0  0  0
    6.3467  -29.5323   23.0346 H   0  0  0  0  0
    5.2879  -27.6296   19.8084 H   0  0  0  0  0
    6.7325  -26.5857   19.5378 H   0  0  0  0  0
    5.7029  -26.3284   20.9981 H   0  0  0  0  0
  1  2  2  0  0  0
  1  3  1  0  0  0
  1  4  1  0  0  0
  3  5  1  0  0  0
  3  6  1  0  0  0
  3  7  1  0  0  0
  4  8  1  0  0  0
  4  9  1  0  0  0
  4 10  1  0  0  0
M  END
$$$$
