DMS_1_A_403
  -ISIS-            3D

 10  9  0  0  0  0  0  0  0  0  1 V2000
    2.3850  -19.1110    8.2900 S   0  0  0  0  0
    3.7040  -18.7830    8.9340 O   0  0  0  0  0
    1.1850  -18.0650    9.0740 C   0  0  0  0  0
    1.8610  -20.6480    9.0060 C   0  0  0  0  0
    0.1641  -18.3565    8.7529 H   0  0  0  0  0
    1.3665  -17.0121    8.7758 H   0  0  0  0  0
    1.2625  -18.1458   10.1778 H   0  0  0  0  0
    0.8241  -20.8782    8.6865 H   0  0  0  0  0
    1.9034  -20.5942   10.1134 H   0  0  0  0  0
    2.5309  -21.4611    8.6585 H   0  0  0  0  0
  1  2  2  0  0  0
  1  3  1  0  0  0
  1  4  1  0  0  0
  3  5  1  0  0  0
  3  6  1  0  0  0
  3  7  1  0  0  0
  4  8  1  0  0  0
  4  9  1  0  0  0
  4 10  1  0  0  0
M  END
$$$$
