DMS_1_A_404
  -ISIS-            3D

 10  9  0  0  0  0  0  0  0  0  1 V2000
    8.2730   -4.6860   26.7600 S   0  0  0  0  0
    8.3090   -5.3030   28.1230 O   0  0  0  0  0
    9.3400   -5.6810   25.7480 C   0  0  0  0  0
    6.7240   -5.1820   26.0510 C   0  0  0  0  0
    9.2462   -5.3730   24.6865 H   0  0  0  0  0
    9.0766   -6.7541   25.8461 H   0  0  0  0  0
   10.3913   -5.5362   26.0710 H   0  0  0  0  0
    6.6874   -4.8860   24.9826 H   0  0  0  0  0
    5.8958   -4.6781   26.5902 H   0  0  0  0  0
    6.5937   -6.2804   26.1347 H   0  0  0  0  0
  1  2  2  0  0  0
  1  3  1  0  0  0
  1  4  1  0  0  0
  3  5  1  0  0  0
  3  6  1  0  0  0
  3  7  1  0  0  0
  4  8  1  0  0  0
  4  9  1  0  0  0
  4 10  1  0  0  0
M  END
$$$$
