DMS_2_A_406
  -ISIS-            3D

 10  9  0  0  0  0  0  0  0  0  1 V2000
    7.2490  -17.9650   -4.2450 S   0  0  0  0  0
    6.7870  -19.3430   -3.7990 O   0  0  0  0  0
    7.9420  -18.1700   -5.8660 C   0  0  0  0  0
    8.7120  -17.5840   -3.3090 C   0  0  0  0  0
    8.4041  -17.2181   -6.1986 H   0  0  0  0  0
    7.1387  -18.4492   -6.5781 H   0  0  0  0  0
    8.7115  -18.9690   -5.8546 H   0  0  0  0  0
    9.1598  -16.6404   -3.6824 H   0  0  0  0  0
    9.4509  -18.4060   -3.4038 H   0  0  0  0  0
    8.4434  -17.4581   -2.2402 H   0  0  0  0  0
  1  2  2  0  0  0
  1  3  1  0  0  0
  1  4  1  0  0  0
  3  5  1  0  0  0
  3  6  1  0  0  0
  3  7  1  0  0  0
  4  8  1  0  0  0
  4  9  1  0  0  0
  4 10  1  0  0  0
M  END
$$$$
