DMS_1_A_409
  -ISIS-            3D

 10  9  0  0  0  0  0  0  0  0  1 V2000
  -10.8590   -9.8970   30.4880 S   0  0  0  0  0
  -12.0350   -9.9290   29.5270 O   0  0  0  0  0
   -9.8740  -11.3220   30.1170 C   0  0  0  0  0
  -11.4900  -10.4760   32.0220 C   0  0  0  0  0
   -9.0827  -11.4453   30.8845 H   0  0  0  0  0
   -9.3918  -11.1852   29.1274 H   0  0  0  0  0
  -10.5048  -12.2340   30.0859 H   0  0  0  0  0
  -10.6594  -10.6252   32.7419 H   0  0  0  0  0
  -12.0352  -11.4324   31.8847 H   0  0  0  0  0
  -12.1891   -9.7224   32.4389 H   0  0  0  0  0
  1  2  2  0  0  0
  1  3  1  0  0  0
  1  4  1  0  0  0
  3  5  1  0  0  0
  3  6  1  0  0  0
  3  7  1  0  0  0
  4  8  1  0  0  0
  4  9  1  0  0  0
  4 10  1  0  0  0
M  END
$$$$
