DMS_1_A_502
  -ISIS-            3D

 10  9  0  0  0  0  0  0  0  0  1 V2000
    6.1760   -0.7380   -6.2660 S   0  0  0  0  0
    7.0170   -0.4860   -7.4740 O   0  0  0  0  0
    7.2140   -0.6500   -4.7790 C   0  0  0  0  0
    5.6890   -2.4830   -6.2030 C   0  0  0  0  0
    6.6044   -0.8964   -3.8857 H   0  0  0  0  0
    7.6160    0.3785   -4.6745 H   0  0  0  0  0
    8.0562   -1.3668   -4.8650 H   0  0  0  0  0
    5.1210   -2.6766   -5.2702 H   0  0  0  0  0
    6.5918   -3.1270   -6.2302 H   0  0  0  0  0
    5.0462   -2.7147   -7.0767 H   0  0  0  0  0
  1  2  2  0  0  0
  1  3  1  0  0  0
  1  4  1  0  0  0
  3  5  1  0  0  0
  3  6  1  0  0  0
  3  7  1  0  0  0
  4  8  1  0  0  0
  4  9  1  0  0  0
  4 10  1  0  0  0
M  END
$$$$
