DMS_1_A_401
  -ISIS-            3D

 10  9  0  0  0  0  0  0  0  0  1 V2000
    7.0580  -28.4240   21.6540 S   0  0  0  0  0
    7.8080  -27.4410   22.4590 O   0  0  0  0  0
    6.0150  -27.6020   20.4200 C   0  0  0  0  0
    5.7330  -29.1070   22.6900 C   0  0  0  0  0
    5.3961  -28.3565   19.8930 H   0  0  0  0  0
    6.6626  -27.0842   19.6835 H   0  0  0  0  0
    5.3571  -26.8582   20.9151 H   0  0  0  0  0
    5.1140  -29.8052   22.0905 H   0  0  0  0  0
    5.0973  -28.2866   23.0819 H   0  0  0  0  0
    6.1833  -29.6593   23.5402 H   0  0  0  0  0
  1  2  2  0  0  0
  1  3  1  0  0  0
  1  4  1  0  0  0
  3  5  1  0  0  0
  3  6  1  0  0  0
  3  7  1  0  0  0
  4  8  1  0  0  0
  4  9  1  0  0  0
  4 10  1  0  0  0
M  END
$$$$
