DMS_1_A_402
  -ISIS-            3D

 10  9  0  0  0  0  0  0  0  0  1 V2000
    6.2130   -0.9980   -6.4300 S   0  0  0  0  0
    7.2610   -0.7600   -7.4430 O   0  0  0  0  0
    6.9920   -0.8750   -4.7770 C   0  0  0  0  0
    5.7330   -2.7350   -6.3690 C   0  0  0  0  0
    6.2396   -1.1035   -3.9947 H   0  0  0  0  0
    7.3702    0.1573   -4.6295 H   0  0  0  0  0
    7.8368   -1.5903   -4.7045 H   0  0  0  0  0
    5.0139   -2.8944   -5.5397 H   0  0  0  0  0
    6.6288   -3.3703   -6.2131 H   0  0  0  0  0
    5.2498   -3.0137   -7.3277 H   0  0  0  0  0
  1  2  2  0  0  0
  1  3  1  0  0  0
  1  4  1  0  0  0
  3  5  1  0  0  0
  3  6  1  0  0  0
  3  7  1  0  0  0
  4  8  1  0  0  0
  4  9  1  0  0  0
  4 10  1  0  0  0
M  END
$$$$
