DMS_1_A_405
  -ISIS-            3D

 10  9  0  0  0  0  0  0  0  0  1 V2000
    2.2990  -19.4220    8.4070 S   0  0  0  0  0
    3.5280  -18.8820    9.0840 O   0  0  0  0  0
    1.9430  -21.0500    9.1310 C   0  0  0  0  0
    0.8170  -18.5030    8.9140 C   0  0  0  0  0
    1.0103  -21.4561    8.6889 H   0  0  0  0  0
    1.8237  -20.9549   10.2298 H   0  0  0  0  0
    2.7828  -21.7401    8.9102 H   0  0  0  0  0
   -0.0821  -18.9736    8.4665 H   0  0  0  0  0
    0.8976  -17.4555    8.5582 H   0  0  0  0  0
    0.7307  -18.5104   10.0199 H   0  0  0  0  0
  1  2  2  0  0  0
  1  3  1  0  0  0
  1  4  1  0  0  0
  3  5  1  0  0  0
  3  6  1  0  0  0
  3  7  1  0  0  0
  4  8  1  0  0  0
  4  9  1  0  0  0
  4 10  1  0  0  0
M  END
$$$$
