DMS_1_A_402
  -ISIS-            3D

 10  9  0  0  0  0  0  0  0  0  1 V2000
    6.1680   -0.9690   -6.1680 S   0  0  0  0  0
    7.1140   -0.8100   -7.2920 O   0  0  0  0  0
    7.1710   -0.8270   -4.7100 C   0  0  0  0  0
    5.8440   -2.6880   -6.0180 C   0  0  0  0  0
    6.5709   -1.0802   -3.8122 H   0  0  0  0  0
    7.5312    0.2179   -4.6136 H   0  0  0  0  0
    8.0475   -1.5046   -4.7719 H   0  0  0  0  0
    5.2725   -2.8868   -5.0885 H   0  0  0  0  0
    6.7916   -3.2649   -5.9986 H   0  0  0  0  0
    5.2388   -3.0245   -6.8847 H   0  0  0  0  0
  1  2  2  0  0  0
  1  3  1  0  0  0
  1  4  1  0  0  0
  3  5  1  0  0  0
  3  6  1  0  0  0
  3  7  1  0  0  0
  4  8  1  0  0  0
  4  9  1  0  0  0
  4 10  1  0  0  0
M  END
$$$$
