DMS_1_A_409
  -ISIS-            3D

 10  9  0  0  0  0  0  0  0  0  1 V2000
   21.2090   14.7330    7.3680 S   0  0  0  0  0
   20.7820   14.0560    6.1040 O   0  0  0  0  0
   20.7410   13.7150    8.7960 C   0  0  0  0  0
   23.0170   14.6760    7.5090 C   0  0  0  0  0
   21.1131   14.1889    9.7272 H   0  0  0  0  0
   21.1772   12.7001    8.6938 H   0  0  0  0  0
   19.6355   13.6372    8.8421 H   0  0  0  0  0
   23.3280   15.1238    8.4749 H   0  0  0  0  0
   23.4665   15.2548    6.6764 H   0  0  0  0  0
   23.3657   13.6242    7.4559 H   0  0  0  0  0
  1  2  2  0  0  0
  1  3  1  0  0  0
  1  4  1  0  0  0
  3  5  1  0  0  0
  3  6  1  0  0  0
  3  7  1  0  0  0
  4  8  1  0  0  0
  4  9  1  0  0  0
  4 10  1  0  0  0
M  END
$$$$
