DMS_2_A_410
  -ISIS-            3D

 10  9  0  0  0  0  0  0  0  0  1 V2000
   -6.3350   21.5840    1.5650 S   0  0  0  0  0
   -7.0720   20.4100    0.9840 O   0  0  0  0  0
   -5.7540   22.6580    0.2220 C   0  0  0  0  0
   -7.5130   22.7050    2.3700 C   0  0  0  0  0
   -5.2683   23.5584    0.6505 H   0  0  0  0  0
   -6.6107   22.9631   -0.4133 H   0  0  0  0  0
   -5.0174   22.1045   -0.3956 H   0  0  0  0  0
   -6.9777   23.6038    2.7386 H   0  0  0  0  0
   -7.9854   22.1838    3.2276 H   0  0  0  0  0
   -8.2977   23.0087    1.6472 H   0  0  0  0  0
  1  2  2  0  0  0
  1  3  1  0  0  0
  1  4  1  0  0  0
  3  5  1  0  0  0
  3  6  1  0  0  0
  3  7  1  0  0  0
  4  8  1  0  0  0
  4  9  1  0  0  0
  4 10  1  0  0  0
M  END
$$$$
