DMS_1_A_405
  -ISIS-            3D

 10  9  0  0  0  0  0  0  0  0  1 V2000
    5.6470    0.4000   18.0710 S   0  0  0  0  0
    6.8070    1.0460   17.3790 O   0  0  0  0  0
    4.8470    1.6860   19.0060 C   0  0  0  0  0
    6.3300   -0.4810   19.4480 C   0  0  0  0  0
    4.0671    1.2461   19.6607 H   0  0  0  0  0
    4.3658    2.4005   18.3073 H   0  0  0  0  0
    5.5872    2.2316   19.6265 H   0  0  0  0  0
    5.5131   -0.8651   20.0928 H   0  0  0  0  0
    6.9909    0.1815   20.0438 H   0  0  0  0  0
    6.9238   -1.3403   19.0748 H   0  0  0  0  0
  1  2  2  0  0  0
  1  3  1  0  0  0
  1  4  1  0  0  0
  3  5  1  0  0  0
  3  6  1  0  0  0
  3  7  1  0  0  0
  4  8  1  0  0  0
  4  9  1  0  0  0
  4 10  1  0  0  0
M  END
$$$$
