DMS_1_A_403
  -ISIS-            3D

 10  9  0  0  0  0  0  0  0  0  1 V2000
    2.5000  -18.7400    8.0720 S   0  0  0  0  0
    3.7070  -18.9150    8.9900 O   0  0  0  0  0
    1.1590  -18.2420    9.1380 C   0  0  0  0  0
    1.9110  -20.3770    7.7610 C   0  0  0  0  0
    0.2044  -18.2539    8.5734 H   0  0  0  0  0
    1.3460  -17.2111    9.5023 H   0  0  0  0  0
    1.0828  -18.9239   10.0098 H   0  0  0  0  0
    0.9359  -20.3343    7.2341 H   0  0  0  0  0
    1.7928  -20.9358    8.7121 H   0  0  0  0  0
    2.6394  -20.9125    7.1184 H   0  0  0  0  0
  1  2  2  0  0  0
  1  3  1  0  0  0
  1  4  1  0  0  0
  3  5  1  0  0  0
  3  6  1  0  0  0
  3  7  1  0  0  0
  4  8  1  0  0  0
  4  9  1  0  0  0
  4 10  1  0  0  0
M  END
$$$$
