DMS_1_A_401
  -ISIS-            3D

 10  9  0  0  0  0  0  0  0  0  1 V2000
    7.0440  -28.0530   21.4670 S   0  0  0  0  0
    7.7780  -27.1070   22.3240 O   0  0  0  0  0
    5.7060  -28.6900   22.4380 C   0  0  0  0  0
    6.1170  -27.0830   20.3260 C   0  0  0  0  0
    5.0431  -29.3120   21.8026 H   0  0  0  0  0
    5.1195  -27.8581   22.8792 H   0  0  0  0  0
    6.1120  -29.3195   23.2560 H   0  0  0  0  0
    5.4446  -27.7372   19.7344 H   0  0  0  0  0
    6.8110  -26.5644   19.6334 H   0  0  0  0  0
    5.5121  -26.3250   20.8648 H   0  0  0  0  0
  1  2  2  0  0  0
  1  3  1  0  0  0
  1  4  1  0  0  0
  3  5  1  0  0  0
  3  6  1  0  0  0
  3  7  1  0  0  0
  4  8  1  0  0  0
  4  9  1  0  0  0
  4 10  1  0  0  0
M  END
$$$$
