BLA_1_A_1301
  -ISIS-            3D

 73 76  0  0  0  0  0  0  0  0  1 V2000
   18.7470   13.9080  -18.0330 C   0  0  0  0  0
   20.4320   15.3880  -17.0520 N   0  0  0  0  0
   19.1230   14.9970  -17.2170 C   0  0  0  0  0
   18.3130   15.8990  -16.4650 C   0  0  0  0  0
   19.1720   16.8290  -15.8590 C   0  0  0  0  0
   20.4960   16.5040  -16.2470 C   0  0  0  0  0
   18.7610   17.9450  -14.9430 C   0  0  0  0  0
   16.8160   15.9030  -16.3240 C   0  0  0  0  0
   16.2900   14.7160  -15.5430 C   0  0  0  0  0
   16.8470   14.6190  -14.1520 C   0  0  0  0  0
   16.8130   15.5450  -13.3560 O   0  0  0  0  0
   17.3700   13.4380  -13.8820 O   0  0  0  0  0
   21.6880   17.1960  -15.9750 C   0  0  0  0  0
   23.2630   15.4810  -16.6930 N   0  0  0  0  0
   22.9440   16.7600  -16.3000 C   0  0  0  0  0
   24.1740   17.5210  -16.2900 C   0  0  0  0  0
   25.1880   16.6990  -16.6700 C   0  0  0  0  0
   24.6090   15.3680  -16.9220 C   0  0  0  0  0
   24.2560   18.9770  -15.9470 C   0  0  0  0  0
   25.1760   14.3360  -17.2510 O   0  0  0  0  0
   26.5970   17.0300  -16.8690 C   0  0  0  0  0
   27.5310   16.2400  -17.3640 C   0  0  0  0  0
   22.9080   15.4960  -20.1940 N   0  0  0  0  0
   23.9210   16.4270  -20.1460 C   0  0  0  0  0
   25.1090   15.7920  -20.6730 C   0  0  0  0  0
   24.8020   14.4900  -20.9980 C   0  0  0  0  0
   23.3660   14.3030  -20.7000 C   0  0  0  0  0
   26.3720   16.5720  -20.8890 C   0  0  0  0  0
   23.8140   17.5600  -19.6950 O   0  0  0  0  0
   25.6460   13.4180  -21.5210 C   0  0  0  0  0
   26.7660   13.5230  -22.1470 C   0  0  0  0  0
   22.5800   13.1760  -20.8800 C   0  0  0  0  0
   20.8350   13.7940  -19.2890 N   0  0  0  0  0
   21.3080   13.0080  -20.2860 C   0  0  0  0  0
   20.3540   11.9690  -20.6260 C   0  0  0  0  0
   19.2960   12.1230  -19.7580 C   0  0  0  0  0
   19.5910   13.2990  -18.9540 C   0  0  0  0  0
   20.4850   11.0040  -21.7640 C   0  0  0  0  0
   18.1660   11.1520  -19.5420 C   0  0  0  0  0
   18.5990   10.0270  -18.6140 C   0  0  0  0  0
   17.5290    9.5570  -17.6710 C   0  0  0  0  0
   16.6340   10.2790  -17.2560 O   0  0  0  0  0
   17.6770    8.2930  -17.3200 O   0  0  0  0  0
   17.7085   13.5514  -17.9547 H   0  0  0  0  0
   21.4882   14.6818  -17.3540 H   0  0  0  0  0
   19.6040   18.2856  -14.3040 H   0  0  0  0  0
   17.9441   17.6434  -14.2547 H   0  0  0  0  0
   18.4062   18.8237  -15.5255 H   0  0  0  0  0
   16.3690   15.8999  -17.3449 H   0  0  0  0  0
   16.4717   16.8495  -15.8520 H   0  0  0  0  0
   16.4935   13.7747  -16.1009 H   0  0  0  0  0
   15.1797   14.7893  -15.4734 H   0  0  0  0  0
   21.5876   18.1912  -15.5123 H   0  0  0  0  0
   25.2975   19.3626  -15.9779 H   0  0  0  0  0
   23.8677   19.1680  -14.9224 H   0  0  0  0  0
   23.6560   19.5873  -16.6577 H   0  0  0  0  0
   27.2754   15.9531  -20.7015 H   0  0  0  0  0
   26.4365   17.4416  -20.1991 H   0  0  0  0  0
   26.4268   16.9650  -21.9281 H   0  0  0  0  0
   25.2421   12.3936  -21.4366 H   0  0  0  0  0
   22.9876   12.3488  -21.4826 H   0  0  0  0  0
   21.4133   14.9145  -18.9579 H   0  0  0  0  0
   19.5049   10.5731  -22.0609 H   0  0  0  0  0
   21.1550   10.1591  -21.4909 H   0  0  0  0  0
   20.9094   11.4972  -22.6659 H   0  0  0  0  0
   17.8130   10.7388  -20.5127 H   0  0  0  0  0
   17.2982   11.7051  -19.1228 H   0  0  0  0  0
   19.4495   10.3779  -17.9835 H   0  0  0  0  0
   18.9982    9.1791  -19.2169 H   0  0  0  0  0
   26.9500   17.3689  -15.8729 H   0  0  0  0  0
   26.6134   17.9913  -17.4209 H   0  0  0  0  0
   27.2901   12.6281  -22.5214 H   0  0  0  0  0
   27.2409   14.4943  -22.3448 H   0  0  0  0  0
  1  3  2  0  0  0
  1 37  1  0  0  0
  1 44  1  0  0  0
  2  3  1  0  0  0
  2  6  1  0  0  0
  2 45  1  0  0  0
  3  4  1  0  0  0
  4  5  2  0  0  0
  4  8  1  0  0  0
  5  6  1  0  0  0
  5  7  1  0  0  0
  6 13  2  0  0  0
  7 46  1  0  0  0
  7 47  1  0  0  0
  7 48  1  0  0  0
  8  9  1  0  0  0
  8 49  1  0  0  0
  8 50  1  0  0  0
  9 10  1  0  0  0
  9 51  1  0  0  0
  9 52  1  0  0  0
 10 11  2  0  0  0
 10 12  2  0  0  0
 13 15  1  0  0  0
 13 53  1  0  0  0
 14 15  1  0  0  0
 14 18  1  0  0  0
 15 16  2  0  0  0
 16 17  1  0  0  0
 16 19  1  0  0  0
 17 18  1  0  0  0
 17 21  1  0  0  0
 18 20  2  0  0  0
 19 54  1  0  0  0
 19 55  1  0  0  0
 19 56  1  0  0  0
 21 22  1  0  0  0
 21 70  1  0  0  0
 21 71  1  0  0  0
 23 24  1  0  0  0
 23 27  1  0  0  0
 24 25  1  0  0  0
 24 29  2  0  0  0
 25 26  2  0  0  0
 25 28  1  0  0  0
 26 27  1  0  0  0
 26 30  1  0  0  0
 27 32  2  0  0  0
 28 57  1  0  0  0
 28 58  1  0  0  0
 28 59  1  0  0  0
 30 31  2  0  0  0
 30 60  1  0  0  0
 31 72  1  0  0  0
 31 73  1  0  0  0
 32 34  1  0  0  0
 32 61  1  0  0  0
 33 34  1  0  0  0
 33 37  1  0  0  0
 33 62  1  0  0  0
 34 35  1  0  0  0
 35 36  2  0  0  0
 35 38  1  0  0  0
 36 37  1  0  0  0
 36 39  1  0  0  0
 38 63  1  0  0  0
 38 64  1  0  0  0
 38 65  1  0  0  0
 39 40  1  0  0  0
 39 66  1  0  0  0
 39 67  1  0  0  0
 40 41  1  0  0  0
 40 68  1  0  0  0
 40 69  1  0  0  0
 41 42  2  0  0  0
 41 43  2  0  0  0
M  END
$$$$
