ACY_1_A_402
  -ISIS-            3D

 10  9  0  0  0  0  0  0  0  0  1 V2000
    2.6780    2.9520    0.1030 C   0  0  0  0  0
    2.9010    2.0390    1.1040 O   0  0  0  0  0
    1.9680    2.9430   -1.0660 O   0  0  0  0  0
    3.6490    4.1000    0.0940 C   0  0  0  0  0
    1.9333    3.5942    0.6987 H   0  0  0  0  0
    3.0921    2.5588    2.2872 H   0  0  0  0  0
    1.2773    4.0257   -1.3080 H   0  0  0  0  0
    3.2522    5.0128   -0.4064 H   0  0  0  0  0
    4.5694    3.8066   -0.4596 H   0  0  0  0  0
    3.9754    4.4029    1.1149 H   0  0  0  0  0
  1  2  1  0  0  0
  1  3  1  0  0  0
  1  4  1  0  0  0
  1  5  1  0  0  0
  2  6  1  0  0  0
  3  7  1  0  0  0
  4  8  1  0  0  0
  4  9  1  0  0  0
  4 10  1  0  0  0
M  END
$$$$
