ACY_2_B_407
  -ISIS-            3D

  7  6  0  0  0  0  0  0  0  0  1 V2000
  -45.4140   63.6230   31.2320 C   0  0  0  0  0
  -46.1510   64.4040   30.6470 O   0  0  0  0  0
  -44.9800   62.5120   30.7520 O   0  0  0  0  0
  -44.9120   63.9000   32.6560 C   0  0  0  0  0
  -44.2531   63.0866   33.0330 H   0  0  0  0  0
  -45.7666   63.9982   33.3614 H   0  0  0  0  0
  -44.3324   64.8489   32.6903 H   0  0  0  0  0
  1  2  2  0  0  0
  1  3  2  0  0  0
  1  4  1  0  0  0
  4  5  1  0  0  0
  4  6  1  0  0  0
  4  7  1  0  0  0
M  END
$$$$
