ACY_2_B_408
  -ISIS-            3D

  7  6  0  0  0  0  0  0  0  0  1 V2000
  -78.2560   89.6600   36.4740 C   0  0  0  0  0
  -78.6360   89.0360   35.4930 O   0  0  0  0  0
  -77.8000   89.1350   37.5540 O   0  0  0  0  0
  -78.2850   91.1950   36.5140 C   0  0  0  0  0
  -77.9048   91.5959   37.4795 H   0  0  0  0  0
  -79.3227   91.5714   36.3754 H   0  0  0  0  0
  -77.6580   91.6205   35.6994 H   0  0  0  0  0
  1  2  2  0  0  0
  1  3  2  0  0  0
  1  4  1  0  0  0
  4  5  1  0  0  0
  4  6  1  0  0  0
  4  7  1  0  0  0
M  END
$$$$
