DMS_2_A_401
  -ISIS-            3D

 10  9  0  0  0  0  0  0  0  0  1 V2000
  -16.9410   24.7460   22.5960 S   0  0  0  0  0
  -17.7490   25.7530   21.8410 O   0  0  0  0  0
  -15.6190   24.1310   21.5120 C   0  0  0  0  0
  -15.9570   25.5450   23.8910 C   0  0  0  0  0
  -14.9815   23.4175   22.0731 H   0  0  0  0  0
  -15.0019   24.9798   21.1525 H   0  0  0  0  0
  -16.0716   23.6111   20.6431 H   0  0  0  0  0
  -15.3162   24.7895   24.3896 H   0  0  0  0  0
  -16.6383   25.9977   24.6399 H   0  0  0  0  0
  -15.3216   26.3380   23.4455 H   0  0  0  0  0
  1  2  2  0  0  0
  1  3  1  0  0  0
  1  4  1  0  0  0
  3  5  1  0  0  0
  3  6  1  0  0  0
  3  7  1  0  0  0
  4  8  1  0  0  0
  4  9  1  0  0  0
  4 10  1  0  0  0
M  END
$$$$
