JNZ_1_A_201
  -ISIS-            3D

 17 18  0  0  0  0  0  0  0  0  1 V2000
  -47.6900  -29.1000    3.4140 C   0  0  0  0  0
  -48.7670  -28.7240    4.2230 C   0  0  0  0  0
  -46.4580  -29.4380    3.9740 C   0  0  0  0  0
  -48.6160  -28.6900    5.6050 C   0  0  0  0  0
  -46.3010  -29.4100    5.3760 C   0  0  0  0  0
  -47.3600  -29.0400    6.1750 C   0  0  0  0  0
  -45.2200  -29.6820    6.2910 C   0  0  0  0  0
  -45.6450  -29.4850    7.5200 N   0  0  0  0  0
  -46.9250  -29.1010    7.4460 N   0  0  0  0  0
  -43.8940  -30.1120    5.9210 N   0  0  0  0  0
  -47.8161  -29.1267    2.3182 H   0  0  0  0  0
  -49.7343  -28.4559    3.7657 H   0  0  0  0  0
  -45.6139  -29.7272    3.3269 H   0  0  0  0  0
  -49.4556  -28.3963    6.2560 H   0  0  0  0  0
  -47.6641  -28.8162    8.4980 H   0  0  0  0  0
  -43.7142  -30.2242    4.9154 H   0  0  0  0  0
  -43.2493  -30.2666    6.7061 H   0  0  0  0  0
  1  2  2  0  0  0
  1  3  1  0  0  0
  1 11  1  0  0  0
  2  4  1  0  0  0
  2 12  1  0  0  0
  3  5  2  0  0  0
  3 13  1  0  0  0
  4  6  1  0  0  0
  4 14  1  0  0  0
  5  6  1  0  0  0
  5  7  1  0  0  0
  6  9  2  0  0  0
  7  8  2  0  0  0
  7 10  1  0  0  0
  8  9  1  0  0  0
  9 15  1  0  0  0
 10 16  1  0  0  0
 10 17  1  0  0  0
M  END
$$$$
