ALD_1_B_401
  -ISIS-            3D

 77 77  0  0  0  0  0  0  0  0  1 V2000
   20.2890  -10.0820   -0.1210 C   0  0  0  0  0
   21.1290   -9.4620    0.5090 O   0  0  0  0  0
   19.5060  -11.0990    0.5530 O   0  0  0  0  0
   19.9250  -11.6080    1.8150 C   0  0  0  0  0
   20.8540  -12.7790    1.5730 C   0  0  0  0  0
   22.2400  -12.5880    1.6220 C   0  0  0  0  0
   23.0850  -13.6640    1.4160 C   0  0  0  0  0
   22.5530  -14.9320    1.1620 C   0  0  0  0  0
   21.1770  -15.1130    1.1280 C   0  0  0  0  0
   20.3310  -14.0360    1.3320 C   0  0  0  0  0
   20.0350   -9.9020   -1.4110 N   0  0  0  0  0
   20.5540   -8.7550   -2.1290 C   0  0  0  0  0
   19.7180   -7.5080   -2.0900 C   0  0  0  0  0
   18.5190   -7.5170   -2.4120 O   0  0  0  0  0
   20.6610   -9.1880   -3.5950 C   0  0  0  0  0
   21.5280  -10.4270   -3.7820 C   0  0  0  0  0
   21.3470  -11.0040   -5.1820 C   0  0  0  0  0
   22.9910  -10.0970   -3.4900 C   0  0  0  0  0
   20.3400   -6.4090   -1.7020 N   0  0  0  0  0
   19.6940   -5.1020   -1.8040 C   0  0  0  0  0
   19.5280   -4.6020   -3.2200 C   0  0  0  0  0
   20.4950   -4.2920   -3.8680 O   0  0  0  0  0
   20.4950   -4.0780   -1.0120 C   0  0  0  0  0
   20.6070   -4.4590    0.4570 C   0  0  0  0  0
   19.2630   -4.2680    1.1730 C   0  0  0  0  0
   21.6880   -3.6350    1.1400 C   0  0  0  0  0
   18.2700   -4.5450   -3.6980 N   0  0  0  0  0
   17.9710   -3.9650   -5.0110 C   0  0  0  0  0
   17.5870   -2.4870   -4.8190 C   0  0  0  0  0
   16.8780   -4.7100   -5.7290 C   0  0  0  0  0
   17.1570   -6.2000   -5.8950 C   0  0  0  0  0
   18.5760   -6.5220   -6.3180 C   0  0  0  0  0
   16.1220   -6.8160   -6.8410 C   0  0  0  0  0
   17.3820   -1.8660   -6.0930 O   0  0  0  0  0
   19.0399  -11.9471    2.3917 H   0  0  0  0  0
   20.4146  -10.8331    2.4385 H   0  0  0  0  0
   22.6628  -11.5886    1.8203 H   0  0  0  0  0
   24.1787  -13.5221    1.4496 H   0  0  0  0  0
   23.2277  -15.7886    0.9931 H   0  0  0  0  0
   20.7580  -16.1154    0.9351 H   0  0  0  0  0
   19.2388  -14.1897    1.2995 H   0  0  0  0  0
   19.3856  -10.5532   -1.8698 H   0  0  0  0  0
   21.5792   -8.5109   -1.7672 H   0  0  0  0  0
   21.0660   -8.3489   -4.2075 H   0  0  0  0  0
   19.6386   -9.3924   -3.9911 H   0  0  0  0  0
   21.2094  -11.2229   -3.0669 H   0  0  0  0  0
   21.9603  -11.9209   -5.3309 H   0  0  0  0  0
   21.6458  -10.2774   -5.9705 H   0  0  0  0  0
   20.2891  -11.2888   -5.3790 H   0  0  0  0  0
   23.6490  -10.9731   -3.6862 H   0  0  0  0  0
   23.1627   -9.8124   -2.4292 H   0  0  0  0  0
   23.3657   -9.2630   -4.1245 H   0  0  0  0  0
   21.3118   -6.4642   -1.3706 H   0  0  0  0  0
   18.6801   -5.1554   -1.3427 H   0  0  0  0  0
   20.0305   -3.0693   -1.1091 H   0  0  0  0  0
   21.5166   -3.9960   -1.4513 H   0  0  0  0  0
   20.9017   -5.5307    0.5555 H   0  0  0  0  0
   19.3500   -4.4831    2.2617 H   0  0  0  0  0
   18.4730   -4.9469    0.7847 H   0  0  0  0  0
   18.8830   -3.2263    1.0774 H   0  0  0  0  0
   21.7957   -3.9059    2.2143 H   0  0  0  0  0
   21.4691   -2.5445    1.0968 H   0  0  0  0  0
   22.6850   -3.7897    0.6697 H   0  0  0  0  0
   17.4972   -4.9204   -3.1306 H   0  0  0  0  0
   18.8800   -3.9814   -5.6572 H   0  0  0  0  0
   18.3795   -1.9421   -4.2610 H   0  0  0  0  0
   16.6543   -2.4009   -4.2223 H   0  0  0  0  0
   16.7351   -4.2581   -6.7381 H   0  0  0  0  0
   15.9119   -4.5766   -5.1884 H   0  0  0  0  0
   17.0037   -6.6817   -4.8965 H   0  0  0  0  0
   18.7060   -7.6124   -6.5005 H   0  0  0  0  0
   19.3311   -6.2505   -5.5498 H   0  0  0  0  0
   18.8547   -6.0026   -7.2620 H   0  0  0  0  0
   16.2360   -7.9212   -6.9094 H   0  0  0  0  0
   16.2136   -6.4129   -7.8744 H   0  0  0  0  0
   15.0808   -6.6197   -6.4996 H   0  0  0  0  0
   18.2271   -1.6232   -6.4478 H   0  0  0  0  0
  1  2  2  0  0  0
  1  3  1  0  0  0
  1 11  1  0  0  0
  3  4  1  0  0  0
  4  5  1  0  0  0
  4 35  1  0  0  0
  4 36  1  0  0  0
  5  6  2  0  0  0
  5 10  1  0  0  0
  6  7  1  0  0  0
  6 37  1  0  0  0
  7  8  2  0  0  0
  7 38  1  0  0  0
  8  9  1  0  0  0
  8 39  1  0  0  0
  9 10  2  0  0  0
  9 40  1  0  0  0
 10 41  1  0  0  0
 11 12  1  0  0  0
 11 42  1  0  0  0
 12 13  1  0  0  0
 12 15  1  0  0  0
 12 43  1  0  0  0
 13 14  2  0  0  0
 13 19  1  0  0  0
 15 16  1  0  0  0
 15 44  1  0  0  0
 15 45  1  0  0  0
 16 17  1  0  0  0
 16 18  1  0  0  0
 16 46  1  0  0  0
 17 47  1  0  0  0
 17 48  1  0  0  0
 17 49  1  0  0  0
 18 50  1  0  0  0
 18 51  1  0  0  0
 18 52  1  0  0  0
 19 20  1  0  0  0
 19 53  1  0  0  0
 20 21  1  0  0  0
 20 23  1  0  0  0
 20 54  1  0  0  0
 21 22  2  0  0  0
 21 27  1  0  0  0
 23 24  1  0  0  0
 23 55  1  0  0  0
 23 56  1  0  0  0
 24 25  1  0  0  0
 24 26  1  0  0  0
 24 57  1  0  0  0
 25 58  1  0  0  0
 25 59  1  0  0  0
 25 60  1  0  0  0
 26 61  1  0  0  0
 26 62  1  0  0  0
 26 63  1  0  0  0
 27 28  1  0  0  0
 27 64  1  0  0  0
 28 29  1  0  0  0
 28 30  1  0  0  0
 28 65  1  0  0  0
 29 34  1  0  0  0
 29 66  1  0  0  0
 29 67  1  0  0  0
 30 31  1  0  0  0
 30 68  1  0  0  0
 30 69  1  0  0  0
 31 32  1  0  0  0
 31 33  1  0  0  0
 31 70  1  0  0  0
 32 71  1  0  0  0
 32 72  1  0  0  0
 32 73  1  0  0  0
 33 74  1  0  0  0
 33 75  1  0  0  0
 33 76  1  0  0  0
 34 77  1  0  0  0
M  END
$$$$
