DMS_1_A_406
  -ISIS-            3D

 10  9  0  0  0  0  0  0  0  0  1 V2000
    6.2290   -1.0240   -6.3000 S   0  0  0  0  0
    7.1870   -0.9600   -7.4400 O   0  0  0  0  0
    5.6660   -2.7140   -5.9550 C   0  0  0  0  0
    7.2130   -0.8300   -4.7870 C   0  0  0  0  0
    5.0543   -2.7232   -5.0295 H   0  0  0  0  0
    6.5383   -3.3883   -5.8349 H   0  0  0  0  0
    5.0457   -3.0687   -6.8033 H   0  0  0  0  0
    6.5562   -0.9285   -3.8986 H   0  0  0  0  0
    7.6779    0.1769   -4.7827 H   0  0  0  0  0
    8.0106   -1.6001   -4.7497 H   0  0  0  0  0
  1  2  2  0  0  0
  1  3  1  0  0  0
  1  4  1  0  0  0
  3  5  1  0  0  0
  3  6  1  0  0  0
  3  7  1  0  0  0
  4  8  1  0  0  0
  4  9  1  0  0  0
  4 10  1  0  0  0
M  END
$$$$
