DMS_1_B_702
  -ISIS-            3D

 10  9  0  0  0  0  0  0  0  0  1 V2000
   16.8450    4.4610  -25.0450 S   0  0  0  0  0
   16.1500    3.6050  -26.0740 O   0  0  0  0  0
   18.5700    4.4460  -25.4600 C   0  0  0  0  0
   16.5070    6.1510  -25.4790 C   0  0  0  0  0
   19.1174    5.1688  -24.8211 H   0  0  0  0  0
   18.7124    4.7143  -26.5269 H   0  0  0  0  0
   18.9812    3.4307  -25.2855 H   0  0  0  0  0
   17.1057    6.8309  -24.8390 H   0  0  0  0  0
   15.4302    6.3632  -25.3183 H   0  0  0  0  0
   16.7554    6.3323  -26.5449 H   0  0  0  0  0
  1  2  2  0  0  0
  1  3  1  0  0  0
  1  4  1  0  0  0
  3  5  1  0  0  0
  3  6  1  0  0  0
  3  7  1  0  0  0
  4  8  1  0  0  0
  4  9  1  0  0  0
  4 10  1  0  0  0
M  END
$$$$
