BO3_1_A_403
  -ISIS-            3D

  7  6  0  0  0  0  0  0  0  0  1 V2000
    7.2110    9.2120    6.5480 B   0  0  0  0  0
    6.2780   10.1330    6.1880 O   0  0  0  0  0
    8.5270    9.5480    6.5260 O   0  0  0  0  0
    6.8340    7.9620    6.9310 O   0  0  0  0  0
    5.3766    9.8473    6.2214 H   0  0  0  0  0
    9.0797    8.8282    6.7971 H   0  0  0  0  0
    5.9027    7.7987    6.9236 H   0  0  0  0  0
  1  2  1  0  0  0
  1  3  1  0  0  0
  1  4  1  0  0  0
  2  5  1  0  0  0
  3  6  1  0  0  0
  4  7  1  0  0  0
M  END
$$$$
