EDO_1_A_408
  -ISIS-            3D

 10  9  0  0  0  0  0  0  0  0  1 V2000
   68.4580  -24.7630  -22.7060 C   0  0  0  0  0
   69.7920  -24.6620  -23.2460 O   0  0  0  0  0
   68.4840  -25.0140  -21.2020 C   0  0  0  0  0
   67.6940  -26.1670  -20.8450 O   0  0  0  0  0
   67.9240  -25.5854  -23.2271 H   0  0  0  0  0
   67.9002  -23.8283  -22.9268 H   0  0  0  0  0
   69.7230  -24.4726  -24.1726 H   0  0  0  0  0
   68.0842  -24.1314  -20.6610 H   0  0  0  0  0
   69.5247  -25.1578  -20.8422 H   0  0  0  0  0
   68.2095  -26.9417  -21.0265 H   0  0  0  0  0
  1  2  1  0  0  0
  1  3  1  0  0  0
  1  5  1  0  0  0
  1  6  1  0  0  0
  2  7  1  0  0  0
  3  4  1  0  0  0
  3  8  1  0  0  0
  3  9  1  0  0  0
  4 10  1  0  0  0
M  END
$$$$
