EDO_2_A_408
  -ISIS-            3D

 10  9  0  0  0  0  0  0  0  0  1 V2000
   62.6950  -59.0640  -22.7060 C   0  0  0  0  0
   61.9410  -57.9600  -23.2460 O   0  0  0  0  0
   62.8990  -58.9170  -21.2020 C   0  0  0  0  0
   64.2930  -59.0240  -20.8450 O   0  0  0  0  0
   63.6737  -59.0960  -23.2277 H   0  0  0  0  0
   62.1841  -60.0210  -22.9433 H   0  0  0  0  0
   61.0200  -58.1240  -23.0921 H   0  0  0  0  0
   62.3344  -59.7049  -20.6618 H   0  0  0  0  0
   62.5053  -57.9440  -20.8396 H   0  0  0  0  0
   64.7240  -58.2192  -21.1019 H   0  0  0  0  0
  1  2  1  0  0  0
  1  3  1  0  0  0
  1  5  1  0  0  0
  1  6  1  0  0  0
  2  7  1  0  0  0
  3  4  1  0  0  0
  3  8  1  0  0  0
  3  9  1  0  0  0
  4 10  1  0  0  0
M  END
$$$$
