EDO_3_A_407
  -ISIS-            3D

 10  9  0  0  0  0  0  0  0  0  1 V2000
   96.4380  -84.4960  -35.2420 C   0  0  0  0  0
   95.5540  -85.4700  -35.8100 O   0  0  0  0  0
   97.4100  -84.0750  -36.3320 C   0  0  0  0  0
   96.8070  -83.0900  -37.1660 O   0  0  0  0  0
   96.9840  -84.9571  -34.3922 H   0  0  0  0  0
   95.8693  -83.6269  -34.8503 H   0  0  0  0  0
   94.8138  -85.5733  -35.2268 H   0  0  0  0  0
   97.7344  -84.9489  -36.9355 H   0  0  0  0  0
   98.3218  -83.6383  -35.8715 H   0  0  0  0  0
   97.3633  -82.9594  -37.9225 H   0  0  0  0  0
  1  2  1  0  0  0
  1  3  1  0  0  0
  1  5  1  0  0  0
  1  6  1  0  0  0
  2  7  1  0  0  0
  3  4  1  0  0  0
  3  8  1  0  0  0
  3  9  1  0  0  0
  4 10  1  0  0  0
M  END
$$$$
