EDO_1_B_411
  -ISIS-            3D

 10  9  0  0  0  0  0  0  0  0  1 V2000
   80.0770  -39.2440   16.2590 C   0  0  0  0  0
   81.1770  -38.9590   17.1310 O   0  0  0  0  0
   78.9060  -38.3200   16.5760 C   0  0  0  0  0
   78.1950  -38.0180   15.3670 O   0  0  0  0  0
   79.7761  -40.3078   16.3598 H   0  0  0  0  0
   80.4100  -39.0920   15.2100 H   0  0  0  0  0
   81.9171  -39.4857   16.8594 H   0  0  0  0  0
   79.2774  -37.3632   16.9985 H   0  0  0  0  0
   78.2272  -38.7675   17.3317 H   0  0  0  0  0
   77.5658  -38.7096   15.2092 H   0  0  0  0  0
  1  2  1  0  0  0
  1  3  1  0  0  0
  1  5  1  0  0  0
  1  6  1  0  0  0
  2  7  1  0  0  0
  3  4  1  0  0  0
  3  8  1  0  0  0
  3  9  1  0  0  0
  4 10  1  0  0  0
M  END
$$$$
