EDO_1_B_406
  -ISIS-            3D

 10  9  0  0  0  0  0  0  0  0  1 V2000
   52.6270  -10.2820   27.8490 C   0  0  0  0  0
   53.8470  -10.2820   28.6110 O   0  0  0  0  0
   51.7940  -11.5250   28.1670 C   0  0  0  0  0
   51.3370  -12.1840   26.9760 O   0  0  0  0  0
   52.8804  -10.2601   26.7678 H   0  0  0  0  0
   52.0487   -9.3598   28.0675 H   0  0  0  0  0
   54.3668   -9.5387   28.3351 H   0  0  0  0  0
   50.9214  -11.2499   28.7963 H   0  0  0  0  0
   52.4003  -12.2442   28.7580 H   0  0  0  0  0
   50.8892  -12.9796   27.2316 H   0  0  0  0  0
  1  2  1  0  0  0
  1  3  1  0  0  0
  1  5  1  0  0  0
  1  6  1  0  0  0
  2  7  1  0  0  0
  3  4  1  0  0  0
  3  8  1  0  0  0
  3  9  1  0  0  0
  4 10  1  0  0  0
M  END
$$$$
