EDO_3_A_406
  -ISIS-            3D

 10  9  0  0  0  0  0  0  0  0  1 V2000
  101.9080  -54.5750  -11.3390 C   0  0  0  0  0
  103.0680  -55.4090  -11.4600 O   0  0  0  0  0
  101.3240  -54.2910  -12.7210 C   0  0  0  0  0
  100.7400  -55.4780  -13.2780 O   0  0  0  0  0
  102.2058  -53.6265  -10.8459 H   0  0  0  0  0
  101.1582  -55.0640  -10.6826 H   0  0  0  0  0
  102.7975  -56.1768  -11.9490 H   0  0  0  0  0
  102.1102  -53.9027  -13.4025 H   0  0  0  0  0
  100.5414  -53.5066  -12.6412 H   0  0  0  0  0
  100.3834  -55.2611  -14.1291 H   0  0  0  0  0
  1  2  1  0  0  0
  1  3  1  0  0  0
  1  5  1  0  0  0
  1  6  1  0  0  0
  2  7  1  0  0  0
  3  4  1  0  0  0
  3  8  1  0  0  0
  3  9  1  0  0  0
  4 10  1  0  0  0
M  END
$$$$
