EDO_2_A_407
  -ISIS-            3D

 10  9  0  0  0  0  0  0  0  0  1 V2000
   29.5630  -41.2700  -35.2420 C   0  0  0  0  0
   29.1610  -40.0180  -35.8100 O   0  0  0  0  0
   29.4410  -42.3220  -36.3320 C   0  0  0  0  0
   30.5960  -42.2920  -37.1660 O   0  0  0  0  0
   28.8895  -41.5172  -34.3941 H   0  0  0  0  0
   30.5981  -41.2067  -34.8466 H   0  0  0  0  0
   29.2213  -39.3547  -35.1355 H   0  0  0  0  0
   28.5214  -42.1840  -36.9381 H   0  0  0  0  0
   29.3753  -43.3307  -35.8733 H   0  0  0  0  0
   30.6190  -41.4340  -37.5714 H   0  0  0  0  0
  1  2  1  0  0  0
  1  3  1  0  0  0
  1  5  1  0  0  0
  1  6  1  0  0  0
  2  7  1  0  0  0
  3  4  1  0  0  0
  3  8  1  0  0  0
  3  9  1  0  0  0
  4 10  1  0  0  0
M  END
$$$$
