EDO_2_A_405
  -ISIS-            3D

 10  9  0  0  0  0  0  0  0  0  1 V2000
   61.5790  -47.3490  -29.3070 C   0  0  0  0  0
   62.4760  -48.2010  -30.0310 O   0  0  0  0  0
   62.2880  -46.7500  -28.0940 C   0  0  0  0  0
   63.4740  -46.0620  -28.5140 O   0  0  0  0  0
   60.6945  -47.9392  -28.9905 H   0  0  0  0  0
   61.2135  -46.5452  -29.9803 H   0  0  0  0  0
   63.2890  -47.7159  -30.1163 H   0  0  0  0  0
   62.5602  -47.5519  -27.3753 H   0  0  0  0  0
   61.6131  -46.0436  -27.5659 H   0  0  0  0  0
   63.8915  -45.6965  -27.7456 H   0  0  0  0  0
  1  2  1  0  0  0
  1  3  1  0  0  0
  1  5  1  0  0  0
  1  6  1  0  0  0
  2  7  1  0  0  0
  3  4  1  0  0  0
  3  8  1  0  0  0
  3  9  1  0  0  0
  4 10  1  0  0  0
M  END
$$$$
