EDO_3_A_405
  -ISIS-            3D

 10  9  0  0  0  0  0  0  0  0  1 V2000
   85.6940  -53.7290  -29.3070 C   0  0  0  0  0
   85.9840  -52.5260  -30.0310 O   0  0  0  0  0
   84.8210  -53.4150  -28.0940 C   0  0  0  0  0
   83.6330  -52.7320  -28.5140 O   0  0  0  0  0
   86.6425  -54.2062  -28.9814 H   0  0  0  0  0
   85.1736  -54.4467  -29.9764 H   0  0  0  0  0
   86.5282  -52.7516  -30.7735 H   0  0  0  0  0
   85.3732  -52.7799  -27.3697 H   0  0  0  0  0
   84.5362  -54.3472  -27.5642 H   0  0  0  0  0
   83.9175  -52.0527  -29.1150 H   0  0  0  0  0
  1  2  1  0  0  0
  1  3  1  0  0  0
  1  5  1  0  0  0
  1  6  1  0  0  0
  2  7  1  0  0  0
  3  4  1  0  0  0
  3  8  1  0  0  0
  3  9  1  0  0  0
  4 10  1  0  0  0
M  END
$$$$
