U5P_3_B_401
  -ISIS-            3D

 33 34  0  0  0  0  0  0  0  0  1 V2000
   98.2540  -26.0690   25.9510 N   0  0  0  0  0
   98.2400  -27.4480   26.0610 C   0  0  0  0  0
   98.8360  -28.1210   25.0240 N   0  0  0  0  0
   99.4240  -27.5650   23.9040 C   0  0  0  0  0
   99.3940  -26.1300   23.8590 C   0  0  0  0  0
   98.8180  -25.4470   24.8620 C   0  0  0  0  0
   97.7420  -28.0250   27.0160 O   0  0  0  0  0
   99.9190  -28.3040   23.0540 O   0  0  0  0  0
   97.6010  -25.3090   27.0460 C   0  0  0  0  0
   98.5200  -25.0940   28.2540 C   0  0  0  0  0
   97.7090  -25.0450   29.4180 O   0  0  0  0  0
   99.0710  -23.7090   27.9560 C   0  0  0  0  0
   97.8670  -23.0040   27.3560 C   0  0  0  0  0
   99.6080  -23.0480   29.0880 O   0  0  0  0  0
   97.2310  -24.0340   26.5560 O   0  0  0  0  0
   98.1710  -21.8030   26.5030 C   0  0  0  0  0
   98.8980  -22.1710   25.3420 O   0  0  0  0  0
   99.6320  -21.0700   24.4540 P   0  0  0  0  0
  100.2320  -21.8440   23.2960 O   0  0  0  0  0
   98.5450  -20.1160   23.9940 O   0  0  0  0  0
  100.6910  -20.4930   25.3730 O   0  0  0  0  0
   99.8475  -25.6320   22.9876 H   0  0  0  0  0
   98.7734  -24.3547   24.8344 H   0  0  0  0  0
   96.6767  -25.8348   27.3707 H   0  0  0  0  0
   99.3178  -25.8583   28.3477 H   0  0  0  0  0
   97.5442  -25.9337   29.7041 H   0  0  0  0  0
   99.8698  -23.7986   27.1892 H   0  0  0  0  0
   97.1712  -22.7053   28.1701 H   0  0  0  0  0
   99.0992  -23.3353   29.8378 H   0  0  0  0  0
   98.7417  -21.0633   27.1029 H   0  0  0  0  0
   97.2222  -21.3129   26.1978 H   0  0  0  0  0
  101.2796  -19.6913   24.8338 H   0  0  0  0  0
   98.8430  -29.1482   25.0870 H   0  0  0  0  0
  1  2  1  0  0  0
  1  6  1  0  0  0
  1  9  1  0  0  0
  2  3  1  0  0  0
  2  7  2  0  0  0
  3  4  1  0  0  0
  4  5  1  0  0  0
  4  8  2  0  0  0
  5  6  2  0  0  0
  5 22  1  0  0  0
  6 23  1  0  0  0
  9 10  1  0  0  0
  9 15  1  0  0  0
  9 24  1  0  0  0
 10 11  1  0  0  0
 10 12  1  0  0  0
 10 25  1  0  0  0
 11 26  1  0  0  0
 12 13  1  0  0  0
 12 14  1  0  0  0
 12 27  1  0  0  0
 13 15  1  0  0  0
 13 16  1  0  0  0
 13 28  1  0  0  0
 14 29  1  0  0  0
 16 17  1  0  0  0
 16 30  1  0  0  0
 16 31  1  0  0  0
 17 18  1  0  0  0
 18 19  2  0  0  0
 18 20  2  0  0  0
 18 21  1  0  0  0
 21 32  1  0  0  0
  3 33  1  0  0  0
M  END
$$$$
