U5P_1_B_401
  -ISIS-            3D

 33 34  0  0  0  0  0  0  0  0  1 V2000
   48.9280  -32.6080   25.9510 N   0  0  0  0  0
   50.1290  -31.9310   26.0610 C   0  0  0  0  0
   50.4130  -31.0770   25.0240 N   0  0  0  0  0
   49.6390  -30.8470   23.9040 C   0  0  0  0  0
   48.4110  -31.5900   23.8590 C   0  0  0  0  0
   48.1070  -32.4300   24.8620 C   0  0  0  0  0
   50.8780  -32.0730   27.0160 O   0  0  0  0  0
   50.0310  -30.0480   23.0540 O   0  0  0  0  0
   48.5970  -33.5530   27.0460 C   0  0  0  0  0
   47.9500  -32.8640   28.2540 C   0  0  0  0  0
   48.3130  -33.5920   29.4180 O   0  0  0  0  0
   46.4760  -33.0790   27.9560 C   0  0  0  0  0
   46.4670  -34.4760   27.3560 C   0  0  0  0  0
   45.6340  -32.9450   29.0880 O   0  0  0  0  0
   47.6780  -34.5110   26.5560 O   0  0  0  0  0
   45.2740  -34.8120   26.5030 C   0  0  0  0  0
   45.2310  -33.9990   25.3420 O   0  0  0  0  0
   43.9100  -33.9130   24.4540 P   0  0  0  0  0
   44.2800  -33.0070   23.2960 O   0  0  0  0  0
   43.6270  -35.3320   23.9940 O   0  0  0  0  0
   42.8800  -33.2850   25.3730 O   0  0  0  0  0
   47.7536  -31.4462   22.9870 H   0  0  0  0  0
   47.1839  -33.0157   24.8343 H   0  0  0  0  0
   49.5139  -34.0885   27.3758 H   0  0  0  0  0
   48.2260  -31.7953   28.3517 H   0  0  0  0  0
   47.6755  -33.3739   30.0880 H   0  0  0  0  0
   46.1713  -32.3393   27.1827 H   0  0  0  0  0
   46.5552  -35.2264   28.1715 H   0  0  0  0  0
   44.7762  -32.6577   28.8049 H   0  0  0  0  0
   44.3473  -34.6883   27.1016 H   0  0  0  0  0
   45.3240  -35.8788   26.1977 H   0  0  0  0  0
   41.8914  -33.1773   24.8338 H   0  0  0  0  0
   51.2987  -30.5570   25.0892 H   0  0  0  0  0
  1  2  1  0  0  0
  1  6  1  0  0  0
  1  9  1  0  0  0
  2  3  1  0  0  0
  2  7  2  0  0  0
  3  4  1  0  0  0
  4  5  1  0  0  0
  4  8  2  0  0  0
  5  6  2  0  0  0
  5 22  1  0  0  0
  6 23  1  0  0  0
  9 10  1  0  0  0
  9 15  1  0  0  0
  9 24  1  0  0  0
 10 11  1  0  0  0
 10 12  1  0  0  0
 10 25  1  0  0  0
 11 26  1  0  0  0
 12 13  1  0  0  0
 12 14  1  0  0  0
 12 27  1  0  0  0
 13 15  1  0  0  0
 13 16  1  0  0  0
 13 28  1  0  0  0
 14 29  1  0  0  0
 16 17  1  0  0  0
 16 30  1  0  0  0
 16 31  1  0  0  0
 17 18  1  0  0  0
 18 19  2  0  0  0
 18 20  2  0  0  0
 18 21  1  0  0  0
 21 32  1  0  0  0
  3 33  1  0  0  0
M  END
$$$$
