DMS_1_A_1004
  -ISIS-            3D

 10  9  0  0  0  0  0  0  0  0  1 V2000
    2.4730  -19.0210    8.0110 S   0  0  0  0  0
    3.7090  -18.8230    8.8100 O   0  0  0  0  0
    1.2980  -17.9370    8.7770 C   0  0  0  0  0
    1.8280  -20.5160    8.7200 C   0  0  0  0  0
    0.2771  -18.1663    8.4088 H   0  0  0  0  0
    1.5429  -16.8878    8.5128 H   0  0  0  0  0
    1.3250  -18.0441    9.8809 H   0  0  0  0  0
    0.7939  -20.6891    8.3578 H   0  0  0  0  0
    1.8255  -20.4579    9.8279 H   0  0  0  0  0
    2.4606  -21.3719    8.4070 H   0  0  0  0  0
  1  2  2  0  0  0
  1  3  1  0  0  0
  1  4  1  0  0  0
  3  5  1  0  0  0
  3  6  1  0  0  0
  3  7  1  0  0  0
  4  8  1  0  0  0
  4  9  1  0  0  0
  4 10  1  0  0  0
M  END
$$$$
