DMS_1_A_403
  -ISIS-            3D

 10  9  0  0  0  0  0  0  0  0  1 V2000
    0.4770  -10.9590   18.9120 S   0  0  0  0  0
    1.2130  -12.1740   18.6020 O   0  0  0  0  0
   -0.2900  -11.2960   20.4700 C   0  0  0  0  0
   -0.8670  -11.0660   17.8130 C   0  0  0  0  0
   -1.0250  -10.4990   20.7042 H   0  0  0  0  0
    0.4828  -11.3169   21.2654 H   0  0  0  0  0
   -0.8090  -12.2763   20.4417 H   0  0  0  0  0
   -1.6103  -10.2782   18.0522 H   0  0  0  0  0
   -1.3555  -12.0596   17.8873 H   0  0  0  0  0
   -0.5116  -10.9149   16.7730 H   0  0  0  0  0
  1  2  2  0  0  0
  1  3  1  0  0  0
  1  4  1  0  0  0
  3  5  1  0  0  0
  3  6  1  0  0  0
  3  7  1  0  0  0
  4  8  1  0  0  0
  4  9  1  0  0  0
  4 10  1  0  0  0
M  END
$$$$
