DMS_2_A_402
  -ISIS-            3D

 10  9  0  0  0  0  0  0  0  0  1 V2000
   -6.2380   -1.0570    6.3780 S   0  0  0  0  0
   -7.2340   -0.4730    7.2630 O   0  0  0  0  0
   -7.1380   -1.3090    4.8640 C   0  0  0  0  0
   -6.1100   -2.7360    6.8660 C   0  0  0  0  0
   -6.5251   -1.9055    4.1577 H   0  0  0  0  0
   -7.3604   -0.3257    4.4008 H   0  0  0  0  0
   -8.0925   -1.8392    5.0618 H   0  0  0  0  0
   -5.5095   -3.3002    6.1235 H   0  0  0  0  0
   -7.1158   -3.1969    6.9507 H   0  0  0  0  0
   -5.6038   -2.7961    7.8514 H   0  0  0  0  0
  1  2  2  0  0  0
  1  3  1  0  0  0
  1  4  1  0  0  0
  3  5  1  0  0  0
  3  6  1  0  0  0
  3  7  1  0  0  0
  4  8  1  0  0  0
  4  9  1  0  0  0
  4 10  1  0  0  0
M  END
$$$$
