IMD_1_E_601
  -ISIS-            3D

  9  9  0  0  0  0  0  0  0  0  1 V2000
   24.0910   32.9070  -80.1200 N   0  0  0  0  0
   23.3010   32.9110  -79.0230 C   0  0  0  0  0
   23.7070   33.9030  -78.1990 N   0  0  0  0  0
   24.7580   34.5260  -78.7740 C   0  0  0  0  0
   25.0000   33.8960  -79.9880 C   0  0  0  0  0
   24.0118   32.2612  -80.9151 H   0  0  0  0  0
   22.4532   32.2686  -78.7525 H   0  0  0  0  0
   25.2467   35.3678  -78.2700 H   0  0  0  0  0
   25.7837   34.1460  -80.7182 H   0  0  0  0  0
  1  2  2  0  0  0
  1  5  1  0  0  0
  1  6  1  0  0  0
  2  3  1  0  0  0
  2  7  1  0  0  0
  3  4  1  0  0  0
  4  5  1  0  0  0
  4  8  1  0  0  0
  5  9  1  0  0  0
M  END
$$$$
