DMS_2_A_402
  -ISIS-            3D

 10  9  0  0  0  0  0  0  0  0  1 V2000
    0.1930  -15.3150  -24.5950 S   0  0  0  0  0
    0.5020  -14.6100  -23.3090 O   0  0  0  0  0
   -0.9340  -16.7020  -24.2830 C   0  0  0  0  0
   -0.8880  -14.2930  -25.6340 C   0  0  0  0  0
   -1.2034  -17.1857  -25.2441 H   0  0  0  0  0
   -1.8520  -16.3356  -23.7794 H   0  0  0  0  0
   -0.4288  -17.4433  -23.6307 H   0  0  0  0  0
   -1.1569  -14.8520  -26.5535 H   0  0  0  0  0
   -0.3515  -13.3639  -25.9156 H   0  0  0  0  0
   -1.8089  -14.0296  -25.0745 H   0  0  0  0  0
  1  2  2  0  0  0
  1  3  1  0  0  0
  1  4  1  0  0  0
  3  5  1  0  0  0
  3  6  1  0  0  0
  3  7  1  0  0  0
  4  8  1  0  0  0
  4  9  1  0  0  0
  4 10  1  0  0  0
M  END
$$$$
