DMS_2_A_403
  -ISIS-            3D

 10  9  0  0  0  0  0  0  0  0  1 V2000
  -21.5440  -20.8440  -14.3070 S   0  0  0  0  0
  -21.7810  -19.4650  -13.7980 O   0  0  0  0  0
  -20.2730  -20.8620  -15.6060 C   0  0  0  0  0
  -20.7460  -21.8320  -13.0090 C   0  0  0  0  0
  -20.0861  -21.9072  -15.9265 H   0  0  0  0  0
  -19.3340  -20.4174  -15.2172 H   0  0  0  0  0
  -20.6293  -20.2704  -16.4739 H   0  0  0  0  0
  -20.5405  -22.8518  -13.3938 H   0  0  0  0  0
  -21.4229  -21.9006  -12.1330 H   0  0  0  0  0
  -19.7946  -21.3505  -12.7030 H   0  0  0  0  0
  1  2  2  0  0  0
  1  3  1  0  0  0
  1  4  1  0  0  0
  3  5  1  0  0  0
  3  6  1  0  0  0
  3  7  1  0  0  0
  4  8  1  0  0  0
  4  9  1  0  0  0
  4 10  1  0  0  0
M  END
$$$$
