DMS_2_A_403
  -ISIS-            3D

 10  9  0  0  0  0  0  0  0  0  1 V2000
   -2.4920  -18.9020   -8.0820 S   0  0  0  0  0
   -3.7270  -18.7070   -8.9210 O   0  0  0  0  0
   -1.2020  -18.0710   -8.9630 C   0  0  0  0  0
   -1.9840  -20.5050   -8.6520 C   0  0  0  0  0
   -0.2118  -18.3752   -8.5661 H   0  0  0  0  0
   -1.3152  -16.9763   -8.8235 H   0  0  0  0  0
   -1.2523  -18.2962  -10.0481 H   0  0  0  0  0
   -0.9663  -20.7371   -8.2763 H   0  0  0  0  0
   -1.9891  -20.5551   -9.7604 H   0  0  0  0  0
   -2.6849  -21.2699   -8.2588 H   0  0  0  0  0
  1  2  2  0  0  0
  1  3  1  0  0  0
  1  4  1  0  0  0
  3  5  1  0  0  0
  3  6  1  0  0  0
  3  7  1  0  0  0
  4  8  1  0  0  0
  4  9  1  0  0  0
  4 10  1  0  0  0
M  END
$$$$
