DMS_2_A_404
  -ISIS-            3D

 10  9  0  0  0  0  0  0  0  0  1 V2000
   -5.4740    0.4620  -18.0540 S   0  0  0  0  0
   -4.7840    1.5870  -18.7600 O   0  0  0  0  0
   -6.4190   -0.2670  -19.3410 C   0  0  0  0  0
   -6.7980    1.2220  -17.2210 C   0  0  0  0  0
   -7.1202   -1.0154  -18.9182 H   0  0  0  0  0
   -5.7386   -0.7825  -20.0495 H   0  0  0  0  0
   -6.9944    0.5031  -19.8948 H   0  0  0  0  0
   -7.4891    0.4510  -16.8232 H   0  0  0  0  0
   -7.3564    1.9001  -17.8985 H   0  0  0  0  0
   -6.4051    1.8148  -16.3697 H   0  0  0  0  0
  1  2  2  0  0  0
  1  3  1  0  0  0
  1  4  1  0  0  0
  3  5  1  0  0  0
  3  6  1  0  0  0
  3  7  1  0  0  0
  4  8  1  0  0  0
  4  9  1  0  0  0
  4 10  1  0  0  0
M  END
$$$$
