APR_1_A_201
  -ISIS-            3D

 58 61  0  0  0  0  0  0  0  0  1 V2000
    4.3270   19.0140   75.5980 N   0  0  0  0  0
    3.9050   17.8750   74.9690 C   0  0  0  0  0
    2.9220   17.9240   73.9990 N   0  0  0  0  0
    2.3700   19.1360   73.6720 C   0  0  0  0  0
    2.7940   20.2590   74.2950 C   0  0  0  0  0
    3.7760   20.2060   75.2720 C   0  0  0  0  0
    4.3130   21.3040   76.0010 N   0  0  0  0  0
    2.0980   21.3220   73.8020 N   0  0  0  0  0
    1.2420   20.8490   72.8580 C   0  0  0  0  0
    1.3930   19.5020   72.7690 N   0  0  0  0  0
    0.7910   18.5080   71.9830 C   0  0  0  0  0
   -0.2000   18.9770   71.2440 C   0  0  0  0  0
   -1.4770   18.9370   71.8910 O   0  0  0  0  0
   -0.1980   18.0150   69.9220 C   0  0  0  0  0
   -0.8240   16.7620   70.2820 O   0  0  0  0  0
    1.8830   18.1590   70.9110 O   0  0  0  0  0
    1.1240   17.8160   69.6300 C   0  0  0  0  0
    1.6480   18.7340   68.4980 C   0  0  0  0  0
    0.9900   19.9810   68.7830 O   0  0  0  0  0
    1.2160   21.3420   68.0220 P   0  0  0  0  0
   -0.1730   21.9070   67.7300 O   0  0  0  0  0
    2.0490   22.2820   68.8810 O   0  0  0  0  0
    2.0020   21.0210   66.7130 O   0  0  0  0  0
    1.5860   20.7990   65.1800 P   0  0  0  0  0
    2.8270   20.2370   64.4860 O   0  0  0  0  0
    0.3050   19.9750   65.1030 O   0  0  0  0  0
    1.2600   22.2380   64.6300 O   0  0  0  0  0
    2.3440   23.1190   64.2740 C   0  0  0  0  0
    1.2580   24.9650   65.5600 O   0  0  0  0  0
    2.0340   26.1760   67.2700 O   0  0  0  0  0
    1.8300   26.1140   65.8740 C   0  0  0  0  0
    3.7340   27.3310   65.0690 O   0  0  0  0  0
    3.1900   26.0590   65.1660 C   0  0  0  0  0
    2.1720   26.5470   62.9770 O   0  0  0  0  0
    2.7730   25.4650   63.8230 C   0  0  0  0  0
    1.8340   24.5400   64.1450 C   0  0  0  0  0
    4.3548   16.9062   75.2371 H   0  0  0  0  0
    5.0437   21.0726   76.6853 H   0  0  0  0  0
    3.9164   22.2246   75.7707 H   0  0  0  0  0
    0.5379   21.4379   72.2588 H   0  0  0  0  0
    0.5258   17.5895   72.5468 H   0  0  0  0  0
   -0.0259   20.0061   70.8716 H   0  0  0  0  0
   -1.5132   19.6280   72.5392 H   0  0  0  0  0
   -0.7844   18.4709   69.0974 H   0  0  0  0  0
   -1.6005   16.9821   70.7845 H   0  0  0  0  0
    1.3445   16.7631   69.3541 H   0  0  0  0  0
    1.3421   18.3536   67.5017 H   0  0  0  0  0
    2.7515   18.8392   68.5321 H   0  0  0  0  0
    2.7847   22.7822   63.3115 H   0  0  0  0  0
    3.1440   23.0734   65.0432 H   0  0  0  0  0
    2.2454   25.3110   67.5969 H   0  0  0  0  0
    1.2176   26.9693   65.5292 H   0  0  0  0  0
    3.8267   27.6734   65.9490 H   0  0  0  0  0
    3.8911   25.3737   65.6877 H   0  0  0  0  0
    2.6758   27.3332   63.1556 H   0  0  0  0  0
    3.6462   25.0412   63.2851 H   0  0  0  0  0
    1.0017   24.5409   63.4082 H   0  0  0  0  0
   -0.7392   22.0793   68.6944 H   0  0  0  0  0
  1  2  1  0  0  0
  1  6  2  0  0  0
  2  3  1  0  0  0
  2 37  1  0  0  0
  3  4  1  0  0  0
  4  5  2  0  0  0
  4 10  1  0  0  0
  5  6  1  0  0  0
  5  8  1  0  0  0
  6  7  1  0  0  0
  7 38  1  0  0  0
  7 39  1  0  0  0
  8  9  2  0  0  0
  9 10  1  0  0  0
  9 40  1  0  0  0
 10 11  1  0  0  0
 11 12  1  0  0  0
 11 16  1  0  0  0
 11 41  1  0  0  0
 12 13  1  0  0  0
 12 14  1  0  0  0
 12 42  1  0  0  0
 13 43  1  0  0  0
 14 15  1  0  0  0
 14 17  1  0  0  0
 14 44  1  0  0  0
 15 45  1  0  0  0
 16 17  1  0  0  0
 17 18  1  0  0  0
 17 46  1  0  0  0
 18 19  1  0  0  0
 18 47  1  0  0  0
 18 48  1  0  0  0
 19 20  1  0  0  0
 20 21  1  0  0  0
 20 22  2  0  0  0
 20 23  1  0  0  0
 23 24  1  0  0  0
 24 25  2  0  0  0
 24 26  2  0  0  0
 24 27  1  0  0  0
 27 28  1  0  0  0
 28 36  1  0  0  0
 28 49  1  0  0  0
 28 50  1  0  0  0
 29 31  1  0  0  0
 29 36  1  0  0  0
 30 31  1  0  0  0
 30 51  1  0  0  0
 31 33  1  0  0  0
 31 52  1  0  0  0
 32 33  1  0  0  0
 32 53  1  0  0  0
 33 35  1  0  0  0
 33 54  1  0  0  0
 34 35  1  0  0  0
 34 55  1  0  0  0
 35 36  1  0  0  0
 35 56  1  0  0  0
 36 57  1  0  0  0
 21 58  1  0  0  0
M  END
$$$$
