HBD_1_A_201
  -ISIS-            3D

 17 17  0  0  0  0  0  0  0  0  1 V2000
  -49.6310  -29.2410    4.7300 C   0  0  0  0  0
  -48.3360  -29.4390    5.1570 C   0  0  0  0  0
  -47.2660  -29.4080    4.3000 C   0  0  0  0  0
  -47.5000  -29.1690    2.9550 C   0  0  0  0  0
  -48.7940  -28.9930    2.4920 C   0  0  0  0  0
  -49.8660  -29.0110    3.3940 C   0  0  0  0  0
  -50.7560  -29.3210    5.7720 C   0  0  0  0  0
  -51.8660  -29.5330    5.4610 O   0  0  0  0  0
  -50.4590  -29.1570    7.1700 N   0  0  0  0  0
  -46.4200  -29.1240    2.0650 O   0  0  0  0  0
  -48.1180  -29.6463    6.2162 H   0  0  0  0  0
  -46.2381  -29.5679    4.6655 H   0  0  0  0  0
  -48.9964  -28.8241    1.4208 H   0  0  0  0  0
  -50.8948  -28.8531    3.0300 H   0  0  0  0  0
  -49.5022  -28.9587    7.4850 H   0  0  0  0  0
  -51.2381  -29.2390    7.8355 H   0  0  0  0  0
  -46.6947  -28.9629    1.1736 H   0  0  0  0  0
  1  2  2  0  0  0
  1  6  1  0  0  0
  1  7  1  0  0  0
  2  3  1  0  0  0
  2 11  1  0  0  0
  3  4  2  0  0  0
  3 12  1  0  0  0
  4  5  1  0  0  0
  4 10  1  0  0  0
  5  6  2  0  0  0
  5 13  1  0  0  0
  6 14  1  0  0  0
  7  8  2  0  0  0
  7  9  1  0  0  0
  9 15  1  0  0  0
  9 16  1  0  0  0
 10 17  1  0  0  0
M  END
$$$$
