DMS_2_A_1002
  -ISIS-            3D

 10  9  0  0  0  0  0  0  0  0  1 V2000
   -6.9680  -28.0990  -21.5180 S   0  0  0  0  0
   -7.5740  -27.0480  -22.3480 O   0  0  0  0  0
   -5.7570  -28.8670  -22.5480 C   0  0  0  0  0
   -5.9190  -27.3220  -20.3450 C   0  0  0  0  0
   -5.1729  -29.6022  -21.9576 H   0  0  0  0  0
   -5.0695  -28.1048  -22.9690 H   0  0  0  0  0
   -6.2623  -29.3974  -23.3810 H   0  0  0  0  0
   -5.3409  -28.0889  -19.7901 H   0  0  0  0  0
   -6.5335  -26.7457  -19.6234 H   0  0  0  0  0
   -5.2170  -26.6298  -20.8538 H   0  0  0  0  0
  1  2  2  0  0  0
  1  3  1  0  0  0
  1  4  1  0  0  0
  3  5  1  0  0  0
  3  6  1  0  0  0
  3  7  1  0  0  0
  4  8  1  0  0  0
  4  9  1  0  0  0
  4 10  1  0  0  0
M  END
$$$$
