DMS_2_A_403
  -ISIS-            3D

 10  9  0  0  0  0  0  0  0  0  1 V2000
   -2.4740  -19.2390   -8.3020 S   0  0  0  0  0
   -3.3820  -18.9950   -9.4760 O   0  0  0  0  0
   -0.9420  -18.4060   -8.6710 C   0  0  0  0  0
   -1.8930  -20.9070   -8.4830 C   0  0  0  0  0
   -0.1777  -18.6713   -7.9119 H   0  0  0  0  0
   -1.1067  -17.3093   -8.6460 H   0  0  0  0  0
   -0.5789  -18.6941   -9.6785 H   0  0  0  0  0
   -1.1044  -21.1144   -7.7308 H   0  0  0  0  0
   -1.4833  -21.0657   -9.5013 H   0  0  0  0  0
   -2.7364  -21.6087   -8.3198 H   0  0  0  0  0
  1  2  2  0  0  0
  1  3  1  0  0  0
  1  4  1  0  0  0
  3  5  1  0  0  0
  3  6  1  0  0  0
  3  7  1  0  0  0
  4  8  1  0  0  0
  4  9  1  0  0  0
  4 10  1  0  0  0
M  END
$$$$
