DMS_1_A_1005
  -ISIS-            3D

 10  9  0  0  0  0  0  0  0  0  1 V2000
   21.0730   14.5190    7.8700 S   0  0  0  0  0
   22.4840   14.9290    7.9400 O   0  0  0  0  0
   20.8690   13.3850    9.2110 C   0  0  0  0  0
   21.0220   13.3470    6.5500 C   0  0  0  0  0
   19.8801   12.8882    9.1368 H   0  0  0  0  0
   20.9186   13.9383   10.1712 H   0  0  0  0  0
   21.6691   12.6164    9.1966 H   0  0  0  0  0
   20.0310   12.8494    6.5262 H   0  0  0  0  0
   21.8150   12.5814    6.6772 H   0  0  0  0  0
   21.1800   13.8719    5.5856 H   0  0  0  0  0
  1  2  2  0  0  0
  1  3  1  0  0  0
  1  4  1  0  0  0
  3  5  1  0  0  0
  3  6  1  0  0  0
  3  7  1  0  0  0
  4  8  1  0  0  0
  4  9  1  0  0  0
  4 10  1  0  0  0
M  END
$$$$
