DMS_2_A_1003
  -ISIS-            3D

 10  9  0  0  0  0  0  0  0  0  1 V2000
   -6.2230   -1.2380    6.3240 S   0  0  0  0  0
   -6.9800   -0.6980    7.4540 O   0  0  0  0  0
   -7.4090   -1.2440    5.0130 C   0  0  0  0  0
   -6.0970   -2.9650    6.6010 C   0  0  0  0  0
   -6.9928   -1.7752    4.1327 H   0  0  0  0  0
   -7.6424   -0.1994    4.7216 H   0  0  0  0  0
   -8.3439   -1.7466    5.3364 H   0  0  0  0  0
   -5.6897   -3.4627    5.6974 H   0  0  0  0  0
   -7.0918   -3.3947    6.8395 H   0  0  0  0  0
   -5.4105   -3.1532    7.4516 H   0  0  0  0  0
  1  2  2  0  0  0
  1  3  1  0  0  0
  1  4  1  0  0  0
  3  5  1  0  0  0
  3  6  1  0  0  0
  3  7  1  0  0  0
  4  8  1  0  0  0
  4  9  1  0  0  0
  4 10  1  0  0  0
M  END
$$$$
