DMS_1_A_503
  -ISIS-            3D

 10  9  0  0  0  0  0  0  0  0  1 V2000
   -0.5220    9.1510   -7.3530 S   0  0  0  0  0
   -0.3580   10.5650   -6.9680 O   0  0  0  0  0
   -0.7320    9.2130   -9.0840 C   0  0  0  0  0
   -2.2120    8.8190   -6.9710 C   0  0  0  0  0
   -1.0612    8.2239   -9.4627 H   0  0  0  0  0
    0.2362    9.4677   -9.5625 H   0  0  0  0  0
   -1.4804    9.9810   -9.3658 H   0  0  0  0  0
   -2.5107    7.8385   -7.3952 H   0  0  0  0  0
   -2.8719    9.6122   -7.3770 H   0  0  0  0  0
   -2.3371    8.7796   -5.8691 H   0  0  0  0  0
  1  2  2  0  0  0
  1  3  1  0  0  0
  1  4  1  0  0  0
  3  5  1  0  0  0
  3  6  1  0  0  0
  3  7  1  0  0  0
  4  8  1  0  0  0
  4  9  1  0  0  0
  4 10  1  0  0  0
M  END
$$$$
