DMS_1_A_1003
  -ISIS-            3D

 10  9  0  0  0  0  0  0  0  0  1 V2000
    6.2070   -1.0210   -6.3060 S   0  0  0  0  0
    7.1800   -0.5600   -7.2960 O   0  0  0  0  0
    7.2000   -1.2520   -4.8620 C   0  0  0  0  0
    5.9210   -2.7070   -6.7150 C   0  0  0  0  0
    6.6083   -1.7676   -4.0782 H   0  0  0  0  0
    7.5216   -0.2638   -4.4734 H   0  0  0  0  0
    8.0995   -1.8568   -5.0996 H   0  0  0  0  0
    5.3405   -3.1969   -5.9068 H   0  0  0  0  0
    6.8823   -3.2438   -6.8530 H   0  0  0  0  0
    5.3382   -2.7643   -7.6572 H   0  0  0  0  0
  1  2  2  0  0  0
  1  3  1  0  0  0
  1  4  1  0  0  0
  3  5  1  0  0  0
  3  6  1  0  0  0
  3  7  1  0  0  0
  4  8  1  0  0  0
  4  9  1  0  0  0
  4 10  1  0  0  0
M  END
$$$$
