PYD_1_A_201
  -ISIS-            3D

 18 18  0  0  0  0  0  0  0  0  1 V2000
  -45.4800  -29.1260    4.5840 N   0  0  0  0  0
  -45.1740  -29.0940    5.8660 C   0  0  0  0  0
  -43.7290  -29.1740    6.3230 C   0  0  0  0  0
  -46.0820  -28.9860    6.7950 N   0  0  0  0  0
  -47.3400  -28.8810    6.4700 C   0  0  0  0  0
  -48.3400  -28.7470    7.4880 N   0  0  0  0  0
  -47.7190  -28.9030    5.1390 C   0  0  0  0  0
  -46.7440  -29.0330    4.1790 C   0  0  0  0  0
  -49.2220  -28.7960    4.8420 C   0  0  0  0  0
  -43.6411  -29.1343    7.4314 H   0  0  0  0  0
  -43.1341  -28.3300    5.9086 H   0  0  0  0  0
  -43.2568  -30.1222    5.9826 H   0  0  0  0  0
  -47.9515  -28.7462    8.4394 H   0  0  0  0  0
  -49.3332  -28.6628    7.2464 H   0  0  0  0  0
  -46.9769  -29.0628    3.1030 H   0  0  0  0  0
  -49.4088  -28.8285    3.7458 H   0  0  0  0  0
  -49.6497  -27.8363    5.2082 H   0  0  0  0  0
  -49.7934  -29.6408    5.2869 H   0  0  0  0  0
  1  2  2  0  0  0
  1  8  1  0  0  0
  2  3  1  0  0  0
  2  4  1  0  0  0
  3 10  1  0  0  0
  3 11  1  0  0  0
  3 12  1  0  0  0
  4  5  2  0  0  0
  5  6  1  0  0  0
  5  7  1  0  0  0
  6 13  1  0  0  0
  6 14  1  0  0  0
  7  8  2  0  0  0
  7  9  1  0  0  0
  8 15  1  0  0  0
  9 16  1  0  0  0
  9 17  1  0  0  0
  9 18  1  0  0  0
M  END
$$$$
