DMS_2_A_403
  -ISIS-            3D

 10  9  0  0  0  0  0  0  0  0  1 V2000
   -2.3760  -18.9230   -8.0900 S   0  0  0  0  0
   -3.6360  -18.5740   -8.8530 O   0  0  0  0  0
   -1.0590  -17.9830   -8.8200 C   0  0  0  0  0
   -1.8870  -20.5250   -8.6860 C   0  0  0  0  0
   -0.0855  -18.3098   -8.4003 H   0  0  0  0  0
   -1.2052  -16.9078   -8.5895 H   0  0  0  0  0
   -1.0515  -18.1181   -9.9207 H   0  0  0  0  0
   -0.8920  -20.7920   -8.2744 H   0  0  0  0  0
   -1.8419  -20.5282   -9.7941 H   0  0  0  0  0
   -2.6267  -21.2812   -8.3526 H   0  0  0  0  0
  1  2  2  0  0  0
  1  3  1  0  0  0
  1  4  1  0  0  0
  3  5  1  0  0  0
  3  6  1  0  0  0
  3  7  1  0  0  0
  4  8  1  0  0  0
  4  9  1  0  0  0
  4 10  1  0  0  0
M  END
$$$$
