DMS_2_A_402
  -ISIS-            3D

 10  9  0  0  0  0  0  0  0  0  1 V2000
   -6.1600   -0.9860    6.3340 S   0  0  0  0  0
   -7.1800   -0.8260    7.3970 O   0  0  0  0  0
   -7.0320   -0.9480    4.7640 C   0  0  0  0  0
   -5.7230   -2.6980    6.2970 C   0  0  0  0  0
   -6.3328   -1.1980    3.9400 H   0  0  0  0  0
   -7.4354    0.0716    4.5959 H   0  0  0  0  0
   -7.8717   -1.6729    4.7722 H   0  0  0  0  0
   -5.0617   -2.9003    5.4298 H   0  0  0  0  0
   -6.6323   -3.3292    6.2234 H   0  0  0  0  0
   -5.1791   -2.9579    7.2282 H   0  0  0  0  0
  1  2  2  0  0  0
  1  3  1  0  0  0
  1  4  1  0  0  0
  3  5  1  0  0  0
  3  6  1  0  0  0
  3  7  1  0  0  0
  4  8  1  0  0  0
  4  9  1  0  0  0
  4 10  1  0  0  0
M  END
$$$$
