DMS_1_B_404
  -ISIS-            3D

 10  9  0  0  0  0  0  0  0  0  1 V2000
   -3.3690    6.1150   25.4010 S   0  0  0  0  0
   -4.6390    6.7410   25.7960 O   0  0  0  0  0
   -3.5580    4.4030   25.8280 C   0  0  0  0  0
   -2.2290    6.5990   26.6630 C   0  0  0  0  0
   -2.5860    3.8801   25.7184 H   0  0  0  0  0
   -4.2963    3.9334   25.1462 H   0  0  0  0  0
   -3.9147    4.3017   26.8736 H   0  0  0  0  0
   -1.2774    6.0420   26.5425 H   0  0  0  0  0
   -2.6513    6.3918   27.6677 H   0  0  0  0  0
   -2.0212    7.6850   26.5748 H   0  0  0  0  0
  1  2  2  0  0  0
  1  3  1  0  0  0
  1  4  1  0  0  0
  3  5  1  0  0  0
  3  6  1  0  0  0
  3  7  1  0  0  0
  4  8  1  0  0  0
  4  9  1  0  0  0
  4 10  1  0  0  0
M  END
$$$$
