DMS_1_B_403
  -ISIS-            3D

 10  9  0  0  0  0  0  0  0  0  1 V2000
   -6.2730    3.7770   11.8170 S   0  0  0  0  0
   -6.7040    5.1800   11.7050 O   0  0  0  0  0
   -5.0890    3.5530   10.5400 C   0  0  0  0  0
   -7.6320    2.8120   11.2130 C   0  0  0  0  0
   -4.8120    2.4813   10.4694 H   0  0  0  0  0
   -4.1789    4.1437   10.7706 H   0  0  0  0  0
   -5.5023    3.8891    9.5667 H   0  0  0  0  0
   -7.3301    1.7473   11.1380 H   0  0  0  0  0
   -7.9477    3.1759   10.2136 H   0  0  0  0  0
   -8.4854    2.8955   11.9167 H   0  0  0  0  0
  1  2  2  0  0  0
  1  3  1  0  0  0
  1  4  1  0  0  0
  3  5  1  0  0  0
  3  6  1  0  0  0
  3  7  1  0  0  0
  4  8  1  0  0  0
  4  9  1  0  0  0
  4 10  1  0  0  0
M  END
$$$$
