EDO_2_B_407
  -ISIS-            3D

 10  9  0  0  0  0  0  0  0  0  1 V2000
  -60.1790   66.6660   13.1290 C   0  0  0  0  0
  -59.5700   67.8870   13.5610 O   0  0  0  0  0
  -59.1570   65.8380   12.3620 C   0  0  0  0  0
  -58.6690   66.5880   11.2440 O   0  0  0  0  0
  -61.0458   66.9077   12.4794 H   0  0  0  0  0
  -60.5720   66.1024   14.0014 H   0  0  0  0  0
  -59.1927   67.7490   14.4198 H   0  0  0  0  0
  -59.6153   64.8974   11.9929 H   0  0  0  0  0
  -58.3061   65.5549   13.0165 H   0  0  0  0  0
  -58.5245   67.4741   11.5564 H   0  0  0  0  0
  1  2  1  0  0  0
  1  3  1  0  0  0
  1  5  1  0  0  0
  1  6  1  0  0  0
  2  7  1  0  0  0
  3  4  1  0  0  0
  3  8  1  0  0  0
  3  9  1  0  0  0
  4 10  1  0  0  0
M  END
$$$$
