EDO_3_B_411
  -ISIS-            3D

 10  9  0  0  0  0  0  0  0  0  1 V2000
 -113.0750   40.0570   30.2650 C   0  0  0  0  0
 -113.7970   40.0740   29.0280 O   0  0  0  0  0
 -112.4890   41.4370   30.5470 C   0  0  0  0  0
 -113.5330   42.3430   30.9240 O   0  0  0  0  0
 -112.2607   39.3073   30.1841 H   0  0  0  0  0
 -113.7411   39.7274   31.0895 H   0  0  0  0  0
 -114.4533   40.7556   29.1078 H   0  0  0  0  0
 -111.9511   41.8255   29.6567 H   0  0  0  0  0
 -111.7525   41.3691   31.3758 H   0  0  0  0  0
 -113.1419   43.1878   31.1026 H   0  0  0  0  0
  1  2  1  0  0  0
  1  3  1  0  0  0
  1  5  1  0  0  0
  1  6  1  0  0  0
  2  7  1  0  0  0
  3  4  1  0  0  0
  3  8  1  0  0  0
  3  9  1  0  0  0
  4 10  1  0  0  0
M  END
$$$$
