EDO_3_A_412
  -ISIS-            3D

 10  9  0  0  0  0  0  0  0  0  1 V2000
  -96.9210   83.4520  -36.1550 C   0  0  0  0  0
  -96.6050   82.8980  -37.4370 O   0  0  0  0  0
  -95.7830   84.3370  -35.6590 C   0  0  0  0  0
  -95.5300   85.3810  -36.6060 O   0  0  0  0  0
  -97.1287   82.6374  -35.4293 H   0  0  0  0  0
  -97.8538   84.0467  -36.2458 H   0  0  0  0  0
  -96.1268   82.0897  -37.3064 H   0  0  0  0  0
  -94.8577   83.7416  -35.5119 H   0  0  0  0  0
  -96.0404   84.7919  -34.6803 H   0  0  0  0  0
  -95.5810   84.9828  -37.4676 H   0  0  0  0  0
  1  2  1  0  0  0
  1  3  1  0  0  0
  1  5  1  0  0  0
  1  6  1  0  0  0
  2  7  1  0  0  0
  3  4  1  0  0  0
  3  8  1  0  0  0
  3  9  1  0  0  0
  4 10  1  0  0  0
M  END
$$$$
