EDO_3_A_407
  -ISIS-            3D

 10  9  0  0  0  0  0  0  0  0  1 V2000
  -90.0090   67.1110  -23.5700 C   0  0  0  0  0
  -90.7030   66.1240  -22.7980 O   0  0  0  0  0
  -89.9470   68.4210  -22.7970 C   0  0  0  0  0
  -89.1180   69.3410  -23.5170 O   0  0  0  0  0
  -90.5275   67.2590  -24.5409 H   0  0  0  0  0
  -88.9827   66.7469  -23.7892 H   0  0  0  0  0
  -90.7206   65.3182  -23.2971 H   0  0  0  0  0
  -89.5191   68.2531  -21.7860 H   0  0  0  0  0
  -90.9639   68.8483  -22.6700 H   0  0  0  0  0
  -89.0811   70.1508  -23.0255 H   0  0  0  0  0
  1  2  1  0  0  0
  1  3  1  0  0  0
  1  5  1  0  0  0
  1  6  1  0  0  0
  2  7  1  0  0  0
  3  4  1  0  0  0
  3  8  1  0  0  0
  3  9  1  0  0  0
  4 10  1  0  0  0
M  END
$$$$
