EDO_1_A_403
  -ISIS-            3D

 10  9  0  0  0  0  0  0  0  0  1 V2000
  -68.2250   15.8400  -34.3660 C   0  0  0  0  0
  -68.7130   17.0980  -33.8840 O   0  0  0  0  0
  -69.1070   15.3370  -35.5020 C   0  0  0  0  0
  -70.3700   14.9130  -34.9770 O   0  0  0  0  0
  -68.1981   15.0987  -33.5394 H   0  0  0  0  0
  -67.1826   15.9730  -34.7255 H   0  0  0  0  0
  -68.2765   17.2921  -33.0650 H   0  0  0  0  0
  -68.6209   14.4780  -36.0110 H   0  0  0  0  0
  -69.2554   16.1340  -36.2610 H   0  0  0  0  0
  -70.9673   14.7895  -35.7029 H   0  0  0  0  0
  1  2  1  0  0  0
  1  3  1  0  0  0
  1  5  1  0  0  0
  1  6  1  0  0  0
  2  7  1  0  0  0
  3  4  1  0  0  0
  3  8  1  0  0  0
  3  9  1  0  0  0
  4 10  1  0  0  0
M  END
$$$$
