EDO_3_B_407
  -ISIS-            3D

 10  9  0  0  0  0  0  0  0  0  1 V2000
 -103.1150   45.2690   13.1290 C   0  0  0  0  0
 -104.4770   45.1850   13.5610 O   0  0  0  0  0
 -102.9090   46.5680   12.3620 C   0  0  0  0  0
 -103.8030   46.6140   11.2440 O   0  0  0  0  0
 -102.8904   44.3975   12.4795 H   0  0  0  0  0
 -102.4305   45.2108   14.0016 H   0  0  0  0  0
 -104.5469   45.5825   14.4190 H   0  0  0  0  0
 -101.8654   46.6417   11.9927 H   0  0  0  0  0
 -103.0899   47.4466   13.0160 H   0  0  0  0  0
 -104.6426   46.2967   11.5572 H   0  0  0  0  0
  1  2  1  0  0  0
  1  3  1  0  0  0
  1  5  1  0  0  0
  1  6  1  0  0  0
  2  7  1  0  0  0
  3  4  1  0  0  0
  3  8  1  0  0  0
  3  9  1  0  0  0
  4 10  1  0  0  0
M  END
$$$$
