EDO_1_B_409
  -ISIS-            3D

 10  9  0  0  0  0  0  0  0  0  1 V2000
  -82.5720   34.2810   14.4680 C   0  0  0  0  0
  -81.7270   35.2560   13.8410 O   0  0  0  0  0
  -81.8920   33.7380   15.7200 C   0  0  0  0  0
  -80.6930   33.0450   15.3540 O   0  0  0  0  0
  -82.7947   33.4630   13.7512 H   0  0  0  0  0
  -83.5376   34.7610   14.7293 H   0  0  0  0  0
  -80.8757   34.8455   13.7429 H   0  0  0  0  0
  -82.5739   33.0397   16.2500 H   0  0  0  0  0
  -81.6497   34.5647   16.4208 H   0  0  0  0  0
  -80.2908   32.7112   16.1448 H   0  0  0  0  0
  1  2  1  0  0  0
  1  3  1  0  0  0
  1  5  1  0  0  0
  1  6  1  0  0  0
  2  7  1  0  0  0
  3  4  1  0  0  0
  3  8  1  0  0  0
  3  9  1  0  0  0
  4 10  1  0  0  0
M  END
$$$$
