EDO_3_A_411
  -ISIS-            3D

 10  9  0  0  0  0  0  0  0  0  1 V2000
 -110.4360   64.3070  -24.6690 C   0  0  0  0  0
 -111.8400   64.0750  -24.8430 O   0  0  0  0  0
 -110.2140   65.1470  -23.4180 C   0  0  0  0  0
 -110.8150   66.4340  -23.5990 O   0  0  0  0  0
 -110.0412   64.8293  -25.5648 H   0  0  0  0  0
 -109.8977   63.3388  -24.5927 H   0  0  0  0  0
 -112.0732   63.2776  -24.3867 H   0  0  0  0  0
 -109.1293   65.2822  -23.2284 H   0  0  0  0  0
 -110.6467   64.6541  -22.5227 H   0  0  0  0  0
 -111.6829   66.2796  -23.9548 H   0  0  0  0  0
  1  2  1  0  0  0
  1  3  1  0  0  0
  1  5  1  0  0  0
  1  6  1  0  0  0
  2  7  1  0  0  0
  3  4  1  0  0  0
  3  8  1  0  0  0
  3  9  1  0  0  0
  4 10  1  0  0  0
M  END
$$$$
