EDO_3_B_409
  -ISIS-            3D

 10  9  0  0  0  0  0  0  0  0  1 V2000
  -79.9660   54.3690   14.4680 C   0  0  0  0  0
  -79.5440   53.1500   13.8410 O   0  0  0  0  0
  -80.7760   54.0520   15.7200 C   0  0  0  0  0
  -81.9760   53.3600   15.3540 O   0  0  0  0  0
  -80.5628   54.9710   13.7512 H   0  0  0  0  0
  -79.0674   54.9650   14.7296 H   0  0  0  0  0
  -80.3250   52.6177   13.7433 H   0  0  0  0  0
  -81.0398   54.9919   16.2497 H   0  0  0  0  0
  -80.1814   53.4289   16.4211 H   0  0  0  0  0
  -82.4675   53.1811   16.1445 H   0  0  0  0  0
  1  2  1  0  0  0
  1  3  1  0  0  0
  1  5  1  0  0  0
  1  6  1  0  0  0
  2  7  1  0  0  0
  3  4  1  0  0  0
  3  8  1  0  0  0
  3  9  1  0  0  0
  4 10  1  0  0  0
M  END
$$$$
