EDO_1_B_407
  -ISIS-            3D

 10  9  0  0  0  0  0  0  0  0  1 V2000
  -63.1160   18.7830   13.1290 C   0  0  0  0  0
  -62.3630   17.6450   13.5610 O   0  0  0  0  0
  -64.3440   18.3120   12.3620 C   0  0  0  0  0
  -63.9380   17.5150   11.2440 O   0  0  0  0  0
  -62.4772   19.4307   12.4925 H   0  0  0  0  0
  -63.4118   19.3803   14.0158 H   0  0  0  0  0
  -62.2697   17.0849   12.7991 H   0  0  0  0  0
  -64.9292   19.1853   12.0037 H   0  0  0  0  0
  -65.0073   17.7155   13.0238 H   0  0  0  0  0
  -64.7170   17.2338   10.7817 H   0  0  0  0  0
  1  2  1  0  0  0
  1  3  1  0  0  0
  1  5  1  0  0  0
  1  6  1  0  0  0
  2  7  1  0  0  0
  3  4  1  0  0  0
  3  8  1  0  0  0
  3  9  1  0  0  0
  4 10  1  0  0  0
M  END
$$$$
