EDO_2_A_407
  -ISIS-            3D

 10  9  0  0  0  0  0  0  0  0  1 V2000
  -47.8160   44.3950  -23.5700 C   0  0  0  0  0
  -48.3230   45.4890  -22.7980 O   0  0  0  0  0
  -46.7120   43.6860  -22.7970 C   0  0  0  0  0
  -46.3300   42.5080  -23.5170 O   0  0  0  0  0
  -47.4467   44.7576  -24.5525 H   0  0  0  0  0
  -48.6516   43.6932  -23.7726 H   0  0  0  0  0
  -47.7653   46.2419  -22.9428 H   0  0  0  0  0
  -47.0712   43.4003  -21.7856 H   0  0  0  0  0
  -45.8315   44.3505  -22.6710 H   0  0  0  0  0
  -45.6897   42.0378  -22.9992 H   0  0  0  0  0
  1  2  1  0  0  0
  1  3  1  0  0  0
  1  5  1  0  0  0
  1  6  1  0  0  0
  2  7  1  0  0  0
  3  4  1  0  0  0
  3  8  1  0  0  0
  3  9  1  0  0  0
  4 10  1  0  0  0
M  END
$$$$
