EDO_2_B_410
  -ISIS-            3D

 10  9  0  0  0  0  0  0  0  0  1 V2000
  -87.7340   62.7650   40.0530 C   0  0  0  0  0
  -88.7200   63.7820   40.2680 O   0  0  0  0  0
  -88.2790   61.4260   40.5350 C   0  0  0  0  0
  -87.3720   60.3760   40.1790 O   0  0  0  0  0
  -86.8123   63.0313   40.6103 H   0  0  0  0  0
  -87.4672   62.7206   38.9758 H   0  0  0  0  0
  -89.3025   63.7979   39.5201 H   0  0  0  0  0
  -89.2675   61.2225   40.0713 H   0  0  0  0  0
  -88.4217   61.4416   41.6363 H   0  0  0  0  0
  -87.7005   59.5639   40.5419 H   0  0  0  0  0
  1  2  1  0  0  0
  1  3  1  0  0  0
  1  5  1  0  0  0
  1  6  1  0  0  0
  2  7  1  0  0  0
  3  4  1  0  0  0
  3  8  1  0  0  0
  3  9  1  0  0  0
  4 10  1  0  0  0
M  END
$$$$
