EDO_3_B_405
  -ISIS-            3D

 10  9  0  0  0  0  0  0  0  0  1 V2000
 -100.2080   28.3130   22.0090 C   0  0  0  0  0
 -101.5950   28.5300   21.7230 O   0  0  0  0  0
  -99.6530   29.4920   22.8010 C   0  0  0  0  0
  -99.8160   30.7030   22.0540 O   0  0  0  0  0
  -99.6469   28.1896   21.0586 H   0  0  0  0  0
 -100.0909   27.3738   22.5899 H   0  0  0  0  0
 -101.9165   27.7846   21.2333 H   0  0  0  0  0
  -98.5747   29.3434   23.0154 H   0  0  0  0  0
 -100.1722   29.5877   23.7778 H   0  0  0  0  0
 -100.7159   30.7060   21.7486 H   0  0  0  0  0
  1  2  1  0  0  0
  1  3  1  0  0  0
  1  5  1  0  0  0
  1  6  1  0  0  0
  2  7  1  0  0  0
  3  4  1  0  0  0
  3  8  1  0  0  0
  3  9  1  0  0  0
  4 10  1  0  0  0
M  END
$$$$
