EDO_1_A_402
  -ISIS-            3D

 10  9  0  0  0  0  0  0  0  0  1 V2000
  -92.4890   19.6360  -26.9720 C   0  0  0  0  0
  -93.4580   20.5610  -27.4780 O   0  0  0  0  0
  -91.3250   20.3920  -26.3370 C   0  0  0  0  0
  -90.8070   21.3440  -27.2710 O   0  0  0  0  0
  -92.1205   18.9975  -27.8029 H   0  0  0  0  0
  -92.9645   18.9667  -26.2242 H   0  0  0  0  0
  -94.1673   20.0649  -27.8643 H   0  0  0  0  0
  -90.5163   19.6934  -26.0395 H   0  0  0  0  0
  -91.6580   20.9222  -25.4200 H   0  0  0  0  0
  -91.5614   21.7845  -27.6460 H   0  0  0  0  0
  1  2  1  0  0  0
  1  3  1  0  0  0
  1  5  1  0  0  0
  1  6  1  0  0  0
  2  7  1  0  0  0
  3  4  1  0  0  0
  3  8  1  0  0  0
  3  9  1  0  0  0
  4 10  1  0  0  0
M  END
$$$$
