EDO_2_A_409
  -ISIS-            3D

 10  9  0  0  0  0  0  0  0  0  1 V2000
  -76.9010   55.2090  -16.6510 C   0  0  0  0  0
  -75.5460   54.8210  -16.8990 O   0  0  0  0  0
  -77.1660   55.1990  -15.1490 C   0  0  0  0  0
  -76.9940   53.8730  -14.6290 O   0  0  0  0  0
  -77.5902   54.5172  -17.1791 H   0  0  0  0  0
  -77.0669   56.2232  -17.0691 H   0  0  0  0  0
  -75.4075   54.0151  -16.4148 H   0  0  0  0  0
  -78.2019   55.5435  -14.9445 H   0  0  0  0  0
  -76.4752   55.8967  -14.6298 H   0  0  0  0  0
  -77.1700   53.8954  -13.6979 H   0  0  0  0  0
  1  2  1  0  0  0
  1  3  1  0  0  0
  1  5  1  0  0  0
  1  6  1  0  0  0
  2  7  1  0  0  0
  3  4  1  0  0  0
  3  8  1  0  0  0
  3  9  1  0  0  0
  4 10  1  0  0  0
M  END
$$$$
