EDO_1_A_412
  -ISIS-            3D

 10  9  0  0  0  0  0  0  0  0  1 V2000
  -99.2810    5.0560  -36.1550 C   0  0  0  0  0
  -98.9590    5.6070  -37.4370 O   0  0  0  0  0
 -100.6160    5.5990  -35.6590 C   0  0  0  0  0
 -101.6470    5.2960  -36.6060 O   0  0  0  0  0
  -98.4768    5.3076  -35.4314 H   0  0  0  0  0
  -99.3234    3.9484  -36.2288 H   0  0  0  0  0
  -98.1248    5.2497  -37.7128 H   0  0  0  0  0
 -100.5615    6.6983  -35.5126 H   0  0  0  0  0
 -100.8814    5.1503  -34.6797 H   0  0  0  0  0
 -101.3071    5.5480  -37.4567 H   0  0  0  0  0
  1  2  1  0  0  0
  1  3  1  0  0  0
  1  5  1  0  0  0
  1  6  1  0  0  0
  2  7  1  0  0  0
  3  4  1  0  0  0
  3  8  1  0  0  0
  3  9  1  0  0  0
  4 10  1  0  0  0
M  END
$$$$
