U3P_3_A_401
  -ISIS-            3D

 33 34  0  0  0  0  0  0  0  0  1 V2000
  -87.6410   77.1540  -29.7870 N   0  0  0  0  0
  -87.9980   77.7600  -30.9780 C   0  0  0  0  0
  -88.0510   79.1300  -30.9340 N   0  0  0  0  0
  -87.7870   79.9400  -29.8460 C   0  0  0  0  0
  -87.4230   79.2360  -28.6500 C   0  0  0  0  0
  -87.3630   77.8960  -28.6630 C   0  0  0  0  0
  -88.2520   77.1280  -31.9960 O   0  0  0  0  0
  -87.8780   81.1610  -29.9660 O   0  0  0  0  0
  -86.3160   71.7220  -30.9970 P   0  0  0  0  0
  -85.9490   70.8240  -29.8290 O   0  0  0  0  0
  -87.3030   71.0570  -31.9380 O   0  0  0  0  0
  -85.0910   72.2340  -31.7260 O   0  0  0  0  0
  -85.8330   75.2040  -26.7790 O   0  0  0  0  0
  -86.6680   74.0590  -26.8680 C   0  0  0  0  0
  -87.3250   73.9570  -28.2260 C   0  0  0  0  0
  -88.0100   75.2040  -28.5190 O   0  0  0  0  0
  -86.3820   73.7060  -29.4040 C   0  0  0  0  0
  -87.1050   72.9960  -30.4010 O   0  0  0  0  0
  -86.1530   75.1260  -29.9250 C   0  0  0  0  0
  -85.7220   75.2000  -31.2680 O   0  0  0  0  0
  -87.5680   75.6790  -29.7720 C   0  0  0  0  0
  -87.2017   79.8302  -27.7496 H   0  0  0  0  0
  -87.0856   77.3252  -27.7644 H   0  0  0  0  0
  -85.4742   75.2451  -25.9023 H   0  0  0  0  0
  -87.4486   74.1195  -26.0796 H   0  0  0  0  0
  -86.0706   73.1460  -26.6622 H   0  0  0  0  0
  -88.0743   73.1363  -28.1817 H   0  0  0  0  0
  -85.4353   73.2227  -29.0891 H   0  0  0  0  0
  -85.4526   75.6771  -29.2624 H   0  0  0  0  0
  -84.7747   75.2327  -31.2904 H   0  0  0  0  0
  -88.2207   75.2410  -30.5584 H   0  0  0  0  0
  -85.3289   73.2071  -32.2556 H   0  0  0  0  0
  -88.3163   79.6032  -31.8084 H   0  0  0  0  0
  1  2  1  0  0  0
  1  6  1  0  0  0
  1 21  1  0  0  0
  2  3  1  0  0  0
  2  7  2  0  0  0
  3  4  1  0  0  0
  4  5  1  0  0  0
  4  8  2  0  0  0
  5  6  2  0  0  0
  5 22  1  0  0  0
  6 23  1  0  0  0
  9 10  2  0  0  0
  9 11  2  0  0  0
  9 12  1  0  0  0
  9 18  1  0  0  0
 13 14  1  0  0  0
 13 24  1  0  0  0
 14 15  1  0  0  0
 14 25  1  0  0  0
 14 26  1  0  0  0
 15 16  1  0  0  0
 15 17  1  0  0  0
 15 27  1  0  0  0
 16 21  1  0  0  0
 17 18  1  0  0  0
 17 19  1  0  0  0
 17 28  1  0  0  0
 19 20  1  0  0  0
 19 21  1  0  0  0
 19 29  1  0  0  0
 20 30  1  0  0  0
 21 31  1  0  0  0
 12 32  1  0  0  0
  3 33  1  0  0  0
M  END
$$$$
