U3P_3_B_401
  -ISIS-            3D

 33 34  0  0  0  0  0  0  0  0  1 V2000
 -102.5030   19.9130   28.7780 N   0  0  0  0  0
 -103.0620   19.4730   29.9650 C   0  0  0  0  0
 -103.8460   18.3520   29.8520 N   0  0  0  0  0
 -104.1220   17.6410   28.7000 C   0  0  0  0  0
 -103.5070   18.1620   27.5130 C   0  0  0  0  0
 -102.7360   19.2570   27.5920 C   0  0  0  0  0
 -102.8760   20.0350   31.0360 O   0  0  0  0  0
 -104.8470   16.6490   28.7610 O   0  0  0  0  0
  -98.5740   23.8260   30.1630 P   0  0  0  0  0
  -99.0670   24.8900   31.1240 O   0  0  0  0  0
  -97.8590   24.4230   28.9650 O   0  0  0  0  0
  -97.7360   22.7730   30.8600 O   0  0  0  0  0
  -99.9740   20.7730   25.8150 O   0  0  0  0  0
 -100.0420   22.1800   25.9970 C   0  0  0  0  0
 -100.5490   22.5510   27.3730 C   0  0  0  0  0
 -101.7930   21.8440   27.6330 O   0  0  0  0  0
  -99.6250   22.2030   28.5400 C   0  0  0  0  0
  -99.9040   23.1050   29.6050 O   0  0  0  0  0
 -100.1610   20.8320   28.9520 C   0  0  0  0  0
  -99.8020   20.4310   30.2580 O   0  0  0  0  0
 -101.6560   21.1200   28.8360 C   0  0  0  0  0
 -103.6927   17.6362   26.5633 H   0  0  0  0  0
 -102.2510   19.6801   26.7011 H   0  0  0  0  0
  -99.6380   20.5991   24.9458 H   0  0  0  0  0
 -100.7177   22.6076   25.2255 H   0  0  0  0  0
  -99.0392   22.6261   25.8281 H   0  0  0  0  0
 -100.7464   23.6451   27.3815 H   0  0  0  0  0
  -98.5610   22.1478   28.2351 H   0  0  0  0  0
  -99.8511   20.0541   28.2243 H   0  0  0  0  0
 -100.4922   19.8888   30.6213 H   0  0  0  0  0
 -101.9732   21.7803   29.6727 H   0  0  0  0  0
  -98.3653   21.8626   31.1094 H   0  0  0  0  0
 -104.2750   18.0047   30.7207 H   0  0  0  0  0
  1  2  1  0  0  0
  1  6  1  0  0  0
  1 21  1  0  0  0
  2  3  1  0  0  0
  2  7  2  0  0  0
  3  4  1  0  0  0
  4  5  1  0  0  0
  4  8  2  0  0  0
  5  6  2  0  0  0
  5 22  1  0  0  0
  6 23  1  0  0  0
  9 10  2  0  0  0
  9 11  2  0  0  0
  9 12  1  0  0  0
  9 18  1  0  0  0
 13 14  1  0  0  0
 13 24  1  0  0  0
 14 15  1  0  0  0
 14 25  1  0  0  0
 14 26  1  0  0  0
 15 16  1  0  0  0
 15 17  1  0  0  0
 15 27  1  0  0  0
 16 21  1  0  0  0
 17 18  1  0  0  0
 17 19  1  0  0  0
 17 28  1  0  0  0
 19 20  1  0  0  0
 19 21  1  0  0  0
 19 29  1  0  0  0
 20 30  1  0  0  0
 21 31  1  0  0  0
 12 32  1  0  0  0
  3 33  1  0  0  0
M  END
$$$$
