U3P_2_A_401
  -ISIS-            3D

 33 34  0  0  0  0  0  0  0  0  1 V2000
  -40.3020   37.3220  -29.7870 N   0  0  0  0  0
  -39.5990   37.3280  -30.9780 C   0  0  0  0  0
  -38.3860   36.6900  -30.9340 N   0  0  0  0  0
  -37.8170   36.0560  -29.8460 C   0  0  0  0  0
  -38.6080   36.0930  -28.6500 C   0  0  0  0  0
  -39.7990   36.7110  -28.6630 C   0  0  0  0  0
  -40.0190   37.8650  -31.9960 O   0  0  0  0  0
  -36.7130   35.5240  -29.9660 O   0  0  0  0  0
  -45.6690   38.8910  -30.9970 P   0  0  0  0  0
  -46.6300   39.0220  -29.8290 O   0  0  0  0  0
  -45.7510   40.0780  -31.9380 O   0  0  0  0  0
  -45.8380   37.5740  -31.7260 O   0  0  0  0  0
  -42.8950   36.7320  -26.7790 O   0  0  0  0  0
  -43.4690   38.0270  -26.8680 C   0  0  0  0  0
  -43.2290   38.6470  -28.2260 C   0  0  0  0  0
  -41.8060   38.6170  -28.5190 O   0  0  0  0  0
  -43.9180   37.9560  -29.4040 C   0  0  0  0  0
  -44.1710   38.9370  -30.4010 O   0  0  0  0  0
  -42.8030   37.0480  -29.9250 C   0  0  0  0  0
  -42.9540   36.6380  -31.2680 O   0  0  0  0  0
  -41.6160   37.9970  -29.7720 C   0  0  0  0  0
  -38.2041   35.6046  -27.7494 H   0  0  0  0  0
  -40.4311   36.7559  -27.7650 H   0  0  0  0  0
  -43.0783   36.3819  -25.9173 H   0  0  0  0  0
  -43.0265   38.6722  -26.0791 H   0  0  0  0  0
  -44.5587   37.9668  -26.6629 H   0  0  0  0  0
  -43.5651   39.7059  -28.1816 H   0  0  0  0  0
  -44.8095   37.3778  -29.0892 H   0  0  0  0  0
  -42.6867   36.1598  -29.2702 H   0  0  0  0  0
  -42.1023   36.4257  -31.6296 H   0  0  0  0  0
  -41.6681   38.7833  -30.5564 H   0  0  0  0  0
  -44.8389   37.2012  -32.1121 H   0  0  0  0  0
  -37.8408   36.6839  -31.8070 H   0  0  0  0  0
  1  2  1  0  0  0
  1  6  1  0  0  0
  1 21  1  0  0  0
  2  3  1  0  0  0
  2  7  2  0  0  0
  3  4  1  0  0  0
  4  5  1  0  0  0
  4  8  2  0  0  0
  5  6  2  0  0  0
  5 22  1  0  0  0
  6 23  1  0  0  0
  9 10  2  0  0  0
  9 11  2  0  0  0
  9 12  1  0  0  0
  9 18  1  0  0  0
 13 14  1  0  0  0
 13 24  1  0  0  0
 14 15  1  0  0  0
 14 25  1  0  0  0
 14 26  1  0  0  0
 15 16  1  0  0  0
 15 17  1  0  0  0
 15 27  1  0  0  0
 16 21  1  0  0  0
 17 18  1  0  0  0
 17 19  1  0  0  0
 17 28  1  0  0  0
 19 20  1  0  0  0
 19 21  1  0  0  0
 19 29  1  0  0  0
 20 30  1  0  0  0
 21 31  1  0  0  0
 12 32  1  0  0  0
  3 33  1  0  0  0
M  END
$$$$
