DMS_2_A_403
  -ISIS-            3D

 10  9  0  0  0  0  0  0  0  0  1 V2000
   -2.3380  -18.9630   -8.0740 S   0  0  0  0  0
   -3.6660  -18.7400   -8.7950 O   0  0  0  0  0
   -1.0940  -18.1750   -9.0670 C   0  0  0  0  0
   -1.8930  -20.6370   -8.4940 C   0  0  0  0  0
   -0.0853  -18.4506   -8.6971 H   0  0  0  0  0
   -1.2123  -17.0746   -8.9942 H   0  0  0  0  0
   -1.1949  -18.4778  -10.1296 H   0  0  0  0  0
   -0.8606  -20.8503   -8.1492 H   0  0  0  0  0
   -1.9572  -20.7932   -9.5908 H   0  0  0  0  0
   -2.5894  -21.3373   -7.9892 H   0  0  0  0  0
  1  2  2  0  0  0
  1  3  1  0  0  0
  1  4  1  0  0  0
  3  5  1  0  0  0
  3  6  1  0  0  0
  3  7  1  0  0  0
  4  8  1  0  0  0
  4  9  1  0  0  0
  4 10  1  0  0  0
M  END
$$$$
