DMS_1_A_405
  -ISIS-            3D

 10  9  0  0  0  0  0  0  0  0  1 V2000
    5.5450    0.3650   18.2460 S   0  0  0  0  0
    4.8770    1.4480   19.0750 O   0  0  0  0  0
    6.3420   -0.7070   19.4050 C   0  0  0  0  0
    6.9970    1.0950   17.5730 C   0  0  0  0  0
    6.9757   -1.4411   18.8666 H   0  0  0  0  0
    5.5724   -1.2575   19.9839 H   0  0  0  0  0
    6.9701   -0.1218   20.1076 H   0  0  0  0  0
    7.6154    0.3194   17.0766 H   0  0  0  0  0
    7.5917    1.5862   18.3703 H   0  0  0  0  0
    6.7095    1.8564   16.8193 H   0  0  0  0  0
  1  2  2  0  0  0
  1  3  1  0  0  0
  1  4  1  0  0  0
  3  5  1  0  0  0
  3  6  1  0  0  0
  3  7  1  0  0  0
  4  8  1  0  0  0
  4  9  1  0  0  0
  4 10  1  0  0  0
M  END
$$$$
