DMS_1_A_402
  -ISIS-            3D

 10  9  0  0  0  0  0  0  0  0  1 V2000
    2.2200  -18.9930    8.3170 S   0  0  0  0  0
    3.5240  -18.6530    8.9660 O   0  0  0  0  0
    1.9740  -20.7860    8.4540 C   0  0  0  0  0
    0.8670  -18.3790    9.3630 C   0  0  0  0  0
    0.9764  -21.0547    8.0505 H   0  0  0  0  0
    2.0408  -21.0947    9.5174 H   0  0  0  0  0
    2.7581  -21.3086    7.8689 H   0  0  0  0  0
   -0.1053  -18.7002    8.9367 H   0  0  0  0  0
    0.9043  -17.2709    9.3957 H   0  0  0  0  0
    0.9743  -18.7817   10.3910 H   0  0  0  0  0
  1  2  2  0  0  0
  1  3  1  0  0  0
  1  4  1  0  0  0
  3  5  1  0  0  0
  3  6  1  0  0  0
  3  7  1  0  0  0
  4  8  1  0  0  0
  4  9  1  0  0  0
  4 10  1  0  0  0
M  END
$$$$
