DMS_1_A_403
  -ISIS-            3D

 10  9  0  0  0  0  0  0  0  0  1 V2000
   17.0150   25.1290  -22.1980 S   0  0  0  0  0
   17.8120   26.0960  -21.3810 O   0  0  0  0  0
   15.7990   24.3490  -21.1010 C   0  0  0  0  0
   15.9090   26.0520  -23.2950 C   0  0  0  0  0
   15.1366   23.6856  -21.6937 H   0  0  0  0  0
   15.1911   25.1283  -20.5972 H   0  0  0  0  0
   16.3300   23.7458  -20.3364 H   0  0  0  0  0
   15.2477   25.3447  -23.8360 H   0  0  0  0  0
   16.5142   26.6208  -24.0301 H   0  0  0  0  0
   15.2927   26.7583  -22.7019 H   0  0  0  0  0
  1  2  2  0  0  0
  1  3  1  0  0  0
  1  4  1  0  0  0
  3  5  1  0  0  0
  3  6  1  0  0  0
  3  7  1  0  0  0
  4  8  1  0  0  0
  4  9  1  0  0  0
  4 10  1  0  0  0
M  END
$$$$
