DMS_2_A_405
  -ISIS-            3D

 10  9  0  0  0  0  0  0  0  0  1 V2000
   -6.1670    0.1610  -18.3490 S   0  0  0  0  0
   -7.3600    0.6850  -17.6180 O   0  0  0  0  0
   -6.6100   -0.1550  -20.0830 C   0  0  0  0  0
   -4.9640    1.5030  -18.5760 C   0  0  0  0  0
   -5.7085   -0.4767  -20.6434 H   0  0  0  0  0
   -7.0237    0.7674  -20.5397 H   0  0  0  0  0
   -7.3725   -0.9595  -20.1242 H   0  0  0  0  0
   -4.1080    1.1359  -19.1783 H   0  0  0  0  0
   -4.5966    1.8358  -17.5837 H   0  0  0  0  0
   -5.4461    2.3568  -19.0948 H   0  0  0  0  0
  1  2  2  0  0  0
  1  3  1  0  0  0
  1  4  1  0  0  0
  3  5  1  0  0  0
  3  6  1  0  0  0
  3  7  1  0  0  0
  4  8  1  0  0  0
  4  9  1  0  0  0
  4 10  1  0  0  0
M  END
$$$$
