DMS_1_A_404
  -ISIS-            3D

 10  9  0  0  0  0  0  0  0  0  1 V2000
    6.2110   -0.9610   -6.3090 S   0  0  0  0  0
    7.0130   -0.6090   -7.5140 O   0  0  0  0  0
    5.8330   -2.7350   -6.2660 C   0  0  0  0  0
    7.2610   -0.7940   -4.8370 C   0  0  0  0  0
    5.2889   -2.9754   -5.3299 H   0  0  0  0  0
    6.7743   -3.3203   -6.3110 H   0  0  0  0  0
    5.1964   -2.9942   -7.1365 H   0  0  0  0  0
    6.6856   -1.0898   -3.9361 H   0  0  0  0  0
    7.5828    0.2626   -4.7350 H   0  0  0  0  0
    8.1548   -1.4432   -4.9379 H   0  0  0  0  0
  1  2  2  0  0  0
  1  3  1  0  0  0
  1  4  1  0  0  0
  3  5  1  0  0  0
  3  6  1  0  0  0
  3  7  1  0  0  0
  4  8  1  0  0  0
  4  9  1  0  0  0
  4 10  1  0  0  0
M  END
$$$$
