IMD_2_A_408
  -ISIS-            3D

  9  9  0  0  0  0  0  0  0  0  1 V2000
   -8.2820  -21.3800    1.8900 N   0  0  0  0  0
   -7.9930  -22.4740    1.1490 C   0  0  0  0  0
   -6.6490  -22.5720    1.0270 N   0  0  0  0  0
   -6.0900  -21.5380    1.6910 C   0  0  0  0  0
   -7.1210  -20.7850    2.2360 C   0  0  0  0  0
   -9.2242  -21.0589    2.1442 H   0  0  0  0  0
   -8.6547  -23.2157    0.6836 H   0  0  0  0  0
   -5.0002  -21.4241    1.7203 H   0  0  0  0  0
   -7.0254  -19.8709    2.8402 H   0  0  0  0  0
  1  2  2  0  0  0
  1  5  1  0  0  0
  1  6  1  0  0  0
  2  3  1  0  0  0
  2  7  1  0  0  0
  3  4  1  0  0  0
  4  5  1  0  0  0
  4  8  1  0  0  0
  5  9  1  0  0  0
M  END
$$$$
