DMS_2_A_1006
  -ISIS-            3D

 10  9  0  0  0  0  0  0  0  0  1 V2000
   -5.7350    0.5010  -18.2360 S   0  0  0  0  0
   -6.5920    1.1480  -17.2410 O   0  0  0  0  0
   -4.6360    1.7340  -18.8810 C   0  0  0  0  0
   -6.7110    0.5600  -19.6950 C   0  0  0  0  0
   -4.1213    1.3559  -19.7881 H   0  0  0  0  0
   -3.8669    1.9653  -18.1157 H   0  0  0  0  0
   -5.1812    2.6696  -19.1222 H   0  0  0  0  0
   -6.1144    0.2366  -20.5726 H   0  0  0  0  0
   -7.1105    1.5797  -19.8728 H   0  0  0  0  0
   -7.5681   -0.1360  -19.5859 H   0  0  0  0  0
  1  2  2  0  0  0
  1  3  1  0  0  0
  1  4  1  0  0  0
  3  5  1  0  0  0
  3  6  1  0  0  0
  3  7  1  0  0  0
  4  8  1  0  0  0
  4  9  1  0  0  0
  4 10  1  0  0  0
M  END
$$$$
