EDO_1_H_304
  -ISIS-            3D

 10  9  0  0  0  0  0  0  0  0  1 V2000
   25.4450   15.1420   -4.2700 C   0  0  0  0  0
   25.1910   13.8530   -4.8120 O   0  0  0  0  0
   24.6320   15.2910   -3.0040 C   0  0  0  0  0
   24.6700   16.6660   -2.5710 O   0  0  0  0  0
   25.1555   15.9134   -5.0147 H   0  0  0  0  0
   26.5284   15.2622   -4.0585 H   0  0  0  0  0
   25.7459   13.7337   -5.5717 H   0  0  0  0  0
   25.0414   14.6467   -2.1987 H   0  0  0  0  0
   23.5775   14.9824   -3.1680 H   0  0  0  0  0
   23.9590   17.1311   -2.9916 H   0  0  0  0  0
  1  2  1  0  0  0
  1  3  1  0  0  0
  1  5  1  0  0  0
  1  6  1  0  0  0
  2  7  1  0  0  0
  3  4  1  0  0  0
  3  8  1  0  0  0
  3  9  1  0  0  0
  4 10  1  0  0  0
M  END
$$$$
