DMS_1_A_402
  -ISIS-            3D

 10  9  0  0  0  0  0  0  0  0  1 V2000
    6.1740   -0.9910   -6.2480 S   0  0  0  0  0
    7.2110   -0.8330   -7.2920 O   0  0  0  0  0
    7.0440   -0.9020   -4.6840 C   0  0  0  0  0
    5.7590   -2.7080   -6.1850 C   0  0  0  0  0
    6.3499   -1.1468   -3.8541 H   0  0  0  0  0
    7.4283    0.1283   -4.5382 H   0  0  0  0  0
    7.8968   -1.6114   -4.6759 H   0  0  0  0  0
    5.0943   -2.9039   -5.3187 H   0  0  0  0  0
    6.6758   -3.3257   -6.0940 H   0  0  0  0  0
    5.2252   -2.9905   -7.1155 H   0  0  0  0  0
  1  2  2  0  0  0
  1  3  1  0  0  0
  1  4  1  0  0  0
  3  5  1  0  0  0
  3  6  1  0  0  0
  3  7  1  0  0  0
  4  8  1  0  0  0
  4  9  1  0  0  0
  4 10  1  0  0  0
M  END
$$$$
