EDO_1_B_602
  -ISIS-            3D

 10  9  0  0  0  0  0  0  0  0  1 V2000
  -19.1390   -7.5210   14.4750 C   0  0  0  0  0
  -18.1650   -8.4590   14.9570 O   0  0  0  0  0
  -19.1690   -7.5730   12.9520 C   0  0  0  0  0
  -18.9480   -8.9220   12.5420 O   0  0  0  0  0
  -18.8980   -6.4978   14.8315 H   0  0  0  0  0
  -20.1362   -7.7929   14.8824 H   0  0  0  0  0
  -18.1920   -8.4512   15.9044 H   0  0  0  0  0
  -18.3693   -6.9315   12.5254 H   0  0  0  0  0
  -20.1374   -7.2100   12.5521 H   0  0  0  0  0
  -18.2445   -9.2691   13.0777 H   0  0  0  0  0
  1  2  1  0  0  0
  1  3  1  0  0  0
  1  5  1  0  0  0
  1  6  1  0  0  0
  2  7  1  0  0  0
  3  4  1  0  0  0
  3  8  1  0  0  0
  3  9  1  0  0  0
  4 10  1  0  0  0
M  END
$$$$
