MYC_1_B_606
  -ISIS-            3D

 35 37  0  0  0  0  0  0  0  0  1 V2000
  -18.0090   -9.9060    0.0300 C   0  0  0  0  0
  -17.4350  -10.0050   -1.2360 C   0  0  0  0  0
  -16.4540  -10.9650   -1.4900 C   0  0  0  0  0
  -16.0560  -11.8090   -0.4520 C   0  0  0  0  0
  -16.6240  -11.7050    0.8110 C   0  0  0  0  0
  -17.5970  -10.7480    1.0550 C   0  0  0  0  0
  -15.8210  -11.0950   -2.8430 C   0  0  0  0  0
  -14.8480  -12.0600   -3.0110 C   0  0  0  0  0
  -14.4720  -12.8990   -1.8470 C   0  0  0  0  0
  -13.4990  -13.9930   -2.0050 C   0  0  0  0  0
  -13.9910  -15.2090   -1.5360 C   0  0  0  0  0
  -13.2360  -16.3560   -1.6330 C   0  0  0  0  0
  -11.9950  -16.2830   -2.2190 C   0  0  0  0  0
  -11.5030  -15.0710   -2.7010 C   0  0  0  0  0
  -12.2500  -13.8930   -2.6080 C   0  0  0  0  0
  -15.0980  -12.7620   -0.6450 O   0  0  0  0  0
  -16.1470  -10.3620   -3.8220 O   0  0  0  0  0
  -10.2780  -15.0310   -3.2780 O   0  0  0  0  0
  -11.2730  -17.4270   -2.3020 O   0  0  0  0  0
  -13.7090  -17.5430   -1.1570 O   0  0  0  0  0
  -14.2370  -12.2370   -4.2170 O   0  0  0  0  0
  -18.1580  -10.6490    2.2920 O   0  0  0  0  0
  -17.8560   -9.1660   -2.2250 O   0  0  0  0  0
  -18.7924   -9.1528    0.2203 H   0  0  0  0  0
  -16.3036  -12.3798    1.6219 H   0  0  0  0  0
  -15.6432  -12.8028   -3.3221 H   0  0  0  0  0
  -13.6673  -12.1540   -1.5772 H   0  0  0  0  0
  -14.9927  -15.2758   -1.0791 H   0  0  0  0  0
  -11.8774  -12.9302   -2.9937 H   0  0  0  0  0
  -10.0422  -14.1706   -3.5932 H   0  0  0  0  0
  -10.4530  -17.2093   -2.7280 H   0  0  0  0  0
  -13.0459  -18.2029   -1.3210 H   0  0  0  0  0
  -14.5057  -11.5472   -4.8149 H   0  0  0  0  0
  -18.8174   -9.9739    2.3637 H   0  0  0  0  0
  -18.5284   -8.5513   -1.9688 H   0  0  0  0  0
  1  2  2  0  0  0
  1  6  1  0  0  0
  1 24  1  0  0  0
  2  3  1  0  0  0
  2 23  1  0  0  0
  3  4  2  0  0  0
  3  7  1  0  0  0
  4  5  1  0  0  0
  4 16  1  0  0  0
  5  6  2  0  0  0
  5 25  1  0  0  0
  6 22  1  0  0  0
  7  8  1  0  0  0
  7 17  2  0  0  0
  8  9  1  0  0  0
  8 21  1  0  0  0
  8 26  1  0  0  0
  9 10  1  0  0  0
  9 16  1  0  0  0
  9 27  1  0  0  0
 10 11  2  0  0  0
 10 15  1  0  0  0
 11 12  1  0  0  0
 11 28  1  0  0  0
 12 13  2  0  0  0
 12 20  1  0  0  0
 13 14  1  0  0  0
 13 19  1  0  0  0
 14 15  2  0  0  0
 14 18  1  0  0  0
 15 29  1  0  0  0
 18 30  1  0  0  0
 19 31  1  0  0  0
 20 32  1  0  0  0
 21 33  1  0  0  0
 22 34  1  0  0  0
 23 35  1  0  0  0
M  END
$$$$
