GTA_1_A_7102
  -ISIS-            3D

 79 84  0  0  0  0  0  0  0  0  1 V2000
   83.0750   30.9730   45.3700 N   0  0  0  0  0
   85.3550   32.1910   41.5900 O   0  0  0  0  0
   85.0000   31.2670   42.3150 C   0  0  0  0  0
   85.2620   29.9060   42.1720 C   0  0  0  0  0
   85.9690   29.1780   41.2090 N   0  0  0  0  0
   86.6280   29.7180   40.0230 C   0  0  0  0  0
   85.9390   27.8910   41.5540 C   0  0  0  0  0
   85.2230   27.7340   42.6490 N   0  0  0  0  0
   84.7900   28.9910   43.0780 C   0  0  0  0  0
   84.0510   29.2570   44.1750 N   0  0  0  0  0
   83.7990   30.5480   44.3280 C   0  0  0  0  0
   84.2430   31.5030   43.4490 N   0  0  0  0  0
   83.0070   23.9590   41.8330 O   0  0  0  0  0
   85.0940   26.4960   43.4440 C   0  0  0  0  0
   83.7190   25.8780   43.2370 C   0  0  0  0  0
   83.9880   24.9650   42.0570 C   0  0  0  0  0
   85.3430   24.3790   42.4750 C   0  0  0  0  0
   86.1800   23.7720   41.3700 C   0  0  0  0  0
   86.0390   25.5180   43.0580 O   0  0  0  0  0
   83.3770   25.1610   44.4140 O   0  0  0  0  0
   86.6890   24.3990   38.8420 P   0  0  0  0  0
   88.1200   24.1030   38.5640 O   0  0  0  0  0
   85.6710   23.3840   38.4810 O   0  0  0  0  0
   86.3240   25.8110   38.1580 O   0  0  0  0  0
   86.5210   24.7950   40.3910 O   0  0  0  0  0
   84.9770   26.6480   37.9040 P   0  0  0  0  0
   85.3340   28.0140   37.4200 O   0  0  0  0  0
   84.0460   26.5050   39.0680 O   0  0  0  0  0
   84.3500   25.8020   36.7000 O   0  0  0  0  0
   82.8620   25.8270   36.1120 P   0  0  0  0  0
   82.5570   27.2290   35.6910 O   0  0  0  0  0
   81.9290   25.1600   37.0700 O   0  0  0  0  0
   83.0410   24.8790   34.8330 O   0  0  0  0  0
   83.7330   25.3450   33.6540 C   0  0  0  0  0
   83.3920   24.4280   32.5070 C   0  0  0  0  0
   83.8370   23.0840   32.8250 O   0  0  0  0  0
   81.9000   24.2690   32.1880 C   0  0  0  0  0
   81.4050   25.3190   31.3650 O   0  0  0  0  0
   81.8950   22.9130   31.4810 C   0  0  0  0  0
   82.3010   22.9960   30.1310 O   0  0  0  0  0
   82.9140   22.1410   32.3190 C   0  0  0  0  0
   82.3100   21.4150   33.4420 N   0  0  0  0  0
   82.0720   21.8660   34.7240 C   0  0  0  0  0
   81.5070   20.9530   35.4830 N   0  0  0  0  0
   81.3640   19.8450   34.6550 C   0  0  0  0  0
   80.8330   18.5570   34.8670 C   0  0  0  0  0
   80.3260   18.1480   36.0260 N   0  0  0  0  0
   80.8460   17.6960   33.8200 N   0  0  0  0  0
   81.3580   18.1120   32.6530 C   0  0  0  0  0
   81.8830   19.2950   32.3380 N   0  0  0  0  0
   81.8540   20.1240   33.3960 C   0  0  0  0  0
   87.1598   28.9066   39.4798 H   0  0  0  0  0
   87.3655   30.4909   40.3319 H   0  0  0  0  0
   85.8653   30.1739   39.3543 H   0  0  0  0  0
   86.4306   27.0475   41.0597 H   0  0  0  0  0
   82.4563   24.2337   41.1117 H   0  0  0  0  0
   85.2513   26.7565   44.5126 H   0  0  0  0  0
   82.9395   26.6336   43.0102 H   0  0  0  0  0
   84.1176   25.5761   41.1437 H   0  0  0  0  0
   85.1847   23.6139   43.2658 H   0  0  0  0  0
   85.6212   22.9352   40.9036 H   0  0  0  0  0
   87.1181   23.3480   41.7853 H   0  0  0  0  0
   82.7425   24.5017   44.1593 H   0  0  0  0  0
   84.8273   25.3532   33.8397 H   0  0  0  0  0
   83.4239   26.3810   33.4032 H   0  0  0  0  0
   83.9276   24.7699   31.5949 H   0  0  0  0  0
   81.3100   24.2066   33.1270 H   0  0  0  0  0
   80.4679   25.3859   31.4912 H   0  0  0  0  0
   80.8919   22.4406   31.5331 H   0  0  0  0  0
   81.9736   23.8216   29.7928 H   0  0  0  0  0
   83.4502   21.3954   31.6951 H   0  0  0  0  0
   82.2864   22.8342   35.1801 H   0  0  0  0  0
   81.3425   17.3683   31.8377 H   0  0  0  0  0
   82.8782   31.9748   45.4826 H   0  0  0  0  0
   82.7607   30.2274   46.0024 H   0  0  0  0  0
   79.9727   17.1832   36.0367 H   0  0  0  0  0
   80.3288   18.8183   36.8054 H   0  0  0  0  0
   83.9706   32.4630   43.6880 H   0  0  0  0  0
   88.2683   23.8961   37.4616 H   0  0  0  0  0
  1 11  1  0  0  0
  1 74  1  0  0  0
  1 75  1  0  0  0
  2  3  2  0  0  0
  3  4  1  0  0  0
  3 12  1  0  0  0
  4  5  1  0  0  0
  4  9  2  0  0  0
  5  6  1  0  0  0
  5  7  1  0  0  0
  6 52  1  0  0  0
  6 53  1  0  0  0
  6 54  1  0  0  0
  7  8  1  0  0  0
  7 55  1  0  0  0
  8  9  1  0  0  0
  8 14  1  0  0  0
  9 10  1  0  0  0
 10 11  2  0  0  0
 11 12  1  0  0  0
 12 78  1  0  0  0
 13 16  1  0  0  0
 13 56  1  0  0  0
 14 15  1  0  0  0
 14 19  1  0  0  0
 14 57  1  0  0  0
 15 16  1  0  0  0
 15 20  1  0  0  0
 15 58  1  0  0  0
 16 17  1  0  0  0
 16 59  1  0  0  0
 17 18  1  0  0  0
 17 19  1  0  0  0
 17 60  1  0  0  0
 18 25  1  0  0  0
 18 61  1  0  0  0
 18 62  1  0  0  0
 20 63  1  0  0  0
 21 22  1  0  0  0
 21 23  2  0  0  0
 21 24  1  0  0  0
 21 25  1  0  0  0
 24 26  1  0  0  0
 26 27  2  0  0  0
 26 28  2  0  0  0
 26 29  1  0  0  0
 29 30  1  0  0  0
 30 31  2  0  0  0
 30 32  2  0  0  0
 30 33  1  0  0  0
 33 34  1  0  0  0
 34 35  1  0  0  0
 34 64  1  0  0  0
 34 65  1  0  0  0
 35 36  1  0  0  0
 35 37  1  0  0  0
 35 66  1  0  0  0
 36 41  1  0  0  0
 37 38  1  0  0  0
 37 39  1  0  0  0
 37 67  1  0  0  0
 38 68  1  0  0  0
 39 40  1  0  0  0
 39 41  1  0  0  0
 39 69  1  0  0  0
 40 70  1  0  0  0
 41 42  1  0  0  0
 41 71  1  0  0  0
 42 43  1  0  0  0
 42 51  1  0  0  0
 43 44  2  0  0  0
 43 72  1  0  0  0
 44 45  1  0  0  0
 45 46  2  0  0  0
 45 51  1  0  0  0
 46 47  1  0  0  0
 46 48  1  0  0  0
 47 76  1  0  0  0
 47 77  1  0  0  0
 48 49  2  0  0  0
 49 50  1  0  0  0
 49 73  1  0  0  0
 50 51  2  0  0  0
 22 79  1  0  0  0
M  END
$$$$
