ZU5_1_A_2001
  -ISIS-            3D

 93 95  0  0  0  0  0  0  0  0  1 V2000
   18.6370    3.6200   20.0610 C   0  0  0  0  0
   19.8400    3.3830   20.3030 O   0  0  0  0  0
   18.5340    4.4600   18.9720 O   0  0  0  0  0
   19.5010    5.0810   18.1090 C   0  0  0  0  0
   20.2380    6.1950   18.8100 C   0  0  0  0  0
   21.4910    6.0220   19.3150 C   0  0  0  0  0
   22.2610    7.0770   20.0130 C   0  0  0  0  0
   21.6250    8.4120   20.1730 C   0  0  0  0  0
   20.2720    8.5950   19.6270 C   0  0  0  0  0
   19.5820    7.4820   18.9470 C   0  0  0  0  0
   17.6680    3.0370   20.8770 N   0  0  0  0  0
   17.8840    2.1690   21.9970 C   0  0  0  0  0
   16.9660    1.1040   21.7780 C   0  0  0  0  0
   15.7790    0.9270   21.7220 O   0  0  0  0  0
   17.5360    2.9700   23.2490 C   0  0  0  0  0
   18.2700    4.1480   23.7710 O   0  0  0  0  0
   17.7730    2.1210   24.5500 C   0  0  0  0  0
   17.8120    5.5420   24.0750 C   0  0  0  0  0
   16.4110    5.4460   24.6760 C   0  0  0  0  0
   17.7080    6.3340   22.6740 C   0  0  0  0  0
   19.0080    6.3320   24.5710 C   0  0  0  0  0
   17.8210    0.0890   21.6290 N   0  0  0  0  0
   17.3130   -1.2660   21.4000 C   0  0  0  0  0
   16.6500   -1.8650   22.6360 C   0  0  0  0  0
   17.2120   -1.7270   23.7130 O   0  0  0  0  0
   18.4390   -2.1000   20.7340 C   0  0  0  0  0
   19.0910   -2.1200   19.3660 C   0  0  0  0  0
   18.0560   -2.2770   18.2430 C   0  0  0  0  0
   20.1420   -3.2480   19.3100 C   0  0  0  0  0
   16.1530   -7.3010   24.9600 C   0  0  0  0  0
   17.2660   -7.7130   23.9620 C   0  0  0  0  0
   17.5650   -6.6500   25.0110 C   0  0  0  0  0
   15.0940   -6.2300   24.6040 C   0  0  0  0  0
   15.3920   -5.0530   23.6930 C   0  0  0  0  0
   14.3790   -4.2190   23.4890 C   0  0  0  0  0
   14.5370   -2.8040   23.6380 C   0  0  0  0  0
   13.4960   -1.7050   23.8700 C   0  0  0  0  0
   13.5530   -0.2100   24.3000 C   0  0  0  0  0
   14.0390   -0.1500   25.7540 C   0  0  0  0  0
   13.4760    1.1700   26.2870 C   0  0  0  0  0
   12.2510    1.2910   25.5530 N   0  0  0  0  0
   12.2850    0.5020   24.4090 C   0  0  0  0  0
   11.3530    0.4180   23.5800 O   0  0  0  0  0
   13.9680   -6.3740   25.0970 O   0  0  0  0  0
   15.3750   -2.5530   22.5980 N   0  0  0  0  0
   18.9870    5.4887   17.2142 H   0  0  0  0  0
   20.2166    4.3234   17.7282 H   0  0  0  0  0
   21.9790    5.0374   19.2103 H   0  0  0  0  0
   23.2727    6.8802   20.4035 H   0  0  0  0  0
   22.1514    9.2340   20.6844 H   0  0  0  0  0
   19.7686    9.5711   19.7281 H   0  0  0  0  0
   18.5657    7.6380   18.5480 H   0  0  0  0  0
   16.6910    3.2547   20.6346 H   0  0  0  0  0
   18.9650    1.9217   22.0857 H   0  0  0  0  0
   16.4528    3.2166   23.2008 H   0  0  0  0  0
   17.4296    2.6429   25.4699 H   0  0  0  0  0
   18.8473    1.8668   24.6876 H   0  0  0  0  0
   17.2148    1.1607   24.5097 H   0  0  0  0  0
   16.0306    6.4553   24.9449 H   0  0  0  0  0
   16.4110    4.8480   25.6125 H   0  0  0  0  0
   15.6641    5.0000   23.9867 H   0  0  0  0  0
   17.4236    7.4003   22.8126 H   0  0  0  0  0
   16.9268    5.8802   22.0258 H   0  0  0  0  0
   18.6517    6.3029   22.0860 H   0  0  0  0  0
   18.7833    7.4131   24.7022 H   0  0  0  0  0
   19.9041    6.2432   23.9183 H   0  0  0  0  0
   19.3182    5.9604   25.5721 H   0  0  0  0  0
   18.8452    0.1834   21.6668 H   0  0  0  0  0
   16.4985   -1.2149   20.6315 H   0  0  0  0  0
   18.0676   -3.1480   20.8581 H   0  0  0  0  0
   19.2860   -2.0479   21.4616 H   0  0  0  0  0
   19.6150   -1.1440   19.2172 H   0  0  0  0  0
   18.5377   -2.2770   17.2397 H   0  0  0  0  0
   17.3179   -1.4441   18.2486 H   0  0  0  0  0
   17.4843   -3.2273   18.3360 H   0  0  0  0  0
   20.6690   -3.2611   18.3297 H   0  0  0  0  0
   19.6851   -4.2534   19.4485 H   0  0  0  0  0
   20.9238   -3.1265   20.0929 H   0  0  0  0  0
   15.9453   -8.0281   25.7451 H   0  0  0  0  0
   17.1359   -7.3562   22.9444 H   0  0  0  0  0
   17.7112   -8.6885   24.1373 H   0  0  0  0  0
   18.1920   -6.9709   25.8385 H   0  0  0  0  0
   17.6979   -5.6404   24.6464 H   0  0  0  0  0
   16.4226   -4.8249   23.3937 H   0  0  0  0  0
   13.3474   -4.6024   23.5078 H   0  0  0  0  0
   14.2507    0.3557   23.6419 H   0  0  0  0  0
   15.1484   -0.1970   25.8312 H   0  0  0  0  0
   13.6209   -0.9960   26.3481 H   0  0  0  0  0
   14.1686    2.0143   26.0668 H   0  0  0  0  0
   13.3173    1.1269   27.3877 H   0  0  0  0  0
   11.4433    1.8736   25.8061 H   0  0  0  0  0
   13.0434   -1.5883   22.8588 H   0  0  0  0  0
   12.7088   -2.1592   24.5080 H   0  0  0  0  0
  1  2  2  0  0  0
  1  3  1  0  0  0
  1 11  1  0  0  0
  3  4  1  0  0  0
  4  5  1  0  0  0
  4 46  1  0  0  0
  4 47  1  0  0  0
  5  6  2  0  0  0
  5 10  1  0  0  0
  6  7  1  0  0  0
  6 48  1  0  0  0
  7  8  1  0  0  0
  7 49  1  0  0  0
  8  9  1  0  0  0
  8 50  1  0  0  0
  9 10  1  0  0  0
  9 51  1  0  0  0
 10 52  1  0  0  0
 11 12  1  0  0  0
 11 53  1  0  0  0
 12 13  1  0  0  0
 12 15  1  0  0  0
 12 54  1  0  0  0
 13 14  2  0  0  0
 13 22  1  0  0  0
 15 16  1  0  0  0
 15 17  1  0  0  0
 15 55  1  0  0  0
 16 18  1  0  0  0
 17 56  1  0  0  0
 17 57  1  0  0  0
 17 58  1  0  0  0
 18 19  1  0  0  0
 18 20  1  0  0  0
 18 21  1  0  0  0
 19 59  1  0  0  0
 19 60  1  0  0  0
 19 61  1  0  0  0
 20 62  1  0  0  0
 20 63  1  0  0  0
 20 64  1  0  0  0
 21 65  1  0  0  0
 21 66  1  0  0  0
 21 67  1  0  0  0
 22 23  1  0  0  0
 22 68  1  0  0  0
 23 24  1  0  0  0
 23 26  1  0  0  0
 23 69  1  0  0  0
 24 25  2  0  0  0
 24 45  1  0  0  0
 26 27  1  0  0  0
 26 70  1  0  0  0
 26 71  1  0  0  0
 27 28  1  0  0  0
 27 29  1  0  0  0
 27 72  1  0  0  0
 28 73  1  0  0  0
 28 74  1  0  0  0
 28 75  1  0  0  0
 29 76  1  0  0  0
 29 77  1  0  0  0
 29 78  1  0  0  0
 30 31  1  0  0  0
 30 32  1  0  0  0
 30 33  1  0  0  0
 30 79  1  0  0  0
 31 32  1  0  0  0
 31 80  1  0  0  0
 31 81  1  0  0  0
 32 82  1  0  0  0
 32 83  1  0  0  0
 33 34  1  0  0  0
 33 44  2  0  0  0
 34 35  2  0  0  0
 34 84  1  0  0  0
 35 36  1  0  0  0
 35 85  1  0  0  0
 36 37  1  0  0  0
 36 45  2  0  0  0
 37 38  1  0  0  0
 37 92  1  0  0  0
 37 93  1  0  0  0
 38 39  1  0  0  0
 38 42  1  0  0  0
 38 86  1  0  0  0
 39 40  1  0  0  0
 39 87  1  0  0  0
 39 88  1  0  0  0
 40 41  1  0  0  0
 40 89  1  0  0  0
 40 90  1  0  0  0
 41 42  1  0  0  0
 41 91  1  0  0  0
 42 43  2  0  0  0
M  END
$$$$
