KNL_1_A_201
  -ISIS-            3D

 18 18  0  0  0  0  0  0  0  0  1 V2000
  -43.2720  -35.3560   -1.9640 Cl  0  0  0  0  0
  -42.8060  -31.6070    2.7330 O   0  0  0  0  0
  -43.4260  -32.8360   -0.5820 O   0  0  0  0  0
  -45.9360  -31.5290    0.8710 Cl  0  0  0  0  0
  -43.2410  -33.6020    1.9750 O   0  0  0  0  0
  -43.0560  -32.3980    1.7900 C   0  0  0  0  0
  -43.1090  -31.8640    0.3850 C   0  0  0  0  0
  -46.9670  -35.0520   -0.6440 C   0  0  0  0  0
  -45.8390  -35.5100   -1.2250 C   0  0  0  0  0
  -44.7020  -34.7410   -1.1970 C   0  0  0  0  0
  -44.6550  -33.5180   -0.5740 C   0  0  0  0  0
  -45.8120  -33.0850    0.0210 C   0  0  0  0  0
  -46.9480  -33.8420   -0.0090 C   0  0  0  0  0
  -43.7071  -30.9454    0.2552 H   0  0  0  0  0
  -42.0783  -31.5211    0.1460 H   0  0  0  0  0
  -47.8926  -35.6515   -0.6713 H   0  0  0  0  0
  -45.8394  -36.4936   -1.7246 H   0  0  0  0  0
  -47.8704  -33.4806    0.4773 H   0  0  0  0  0
  1 10  1  0  0  0
  2  6  2  0  0  0
  3  7  1  0  0  0
  3 11  1  0  0  0
  4 12  1  0  0  0
  5  6  2  0  0  0
  6  7  1  0  0  0
  7 14  1  0  0  0
  7 15  1  0  0  0
  8  9  2  0  0  0
  8 13  1  0  0  0
  8 16  1  0  0  0
  9 10  1  0  0  0
  9 17  1  0  0  0
 10 11  2  0  0  0
 11 12  1  0  0  0
 12 13  2  0  0  0
 13 18  1  0  0  0
M  END
$$$$
