5GP_1_A_201
  -ISIS-            3D

 37 39  0  0  0  0  0  0  0  0  1 V2000
   -5.8250   31.4880   13.8940 P   0  0  0  0  0
   -7.1860   31.2090   13.3010 O   0  0  0  0  0
   -5.8850   32.0680   15.2870 O   0  0  0  0  0
   -4.8480   30.3200   13.8200 O   0  0  0  0  0
   -5.2610   32.6630   12.9290 O   0  0  0  0  0
   -3.8640   32.9320   12.8770 C   0  0  0  0  0
   -3.5970   33.8550   11.7140 C   0  0  0  0  0
   -4.0150   33.2040   10.4850 O   0  0  0  0  0
   -4.3260   35.2030   11.7120 C   0  0  0  0  0
   -3.5150   36.1980   11.0980 O   0  0  0  0  0
   -5.5350   34.9490   10.8120 C   0  0  0  0  0
   -6.0270   36.1240   10.2070 O   0  0  0  0  0
   -4.9310   34.0160    9.7810 C   0  0  0  0  0
   -5.8900   33.1340    9.1440 N   0  0  0  0  0
   -6.8590   32.3860    9.7570 C   0  0  0  0  0
   -7.4990   31.5970    8.9320 N   0  0  0  0  0
   -6.9000   31.8280    7.6990 C   0  0  0  0  0
   -7.1730   31.2680    6.4330 C   0  0  0  0  0
   -7.9880   30.3870    6.1420 O   0  0  0  0  0
   -6.3110   31.7670    5.4660 N   0  0  0  0  0
   -5.3520   32.7290    5.6710 C   0  0  0  0  0
   -4.6200   33.0830    4.6170 N   0  0  0  0  0
   -5.0960   33.2600    6.8580 N   0  0  0  0  0
   -5.9020   32.7640    7.8190 C   0  0  0  0  0
   -3.2850   31.9945   12.7447 H   0  0  0  0  0
   -3.5352   33.4011   13.8278 H   0  0  0  0  0
   -2.5016   34.0378   11.6666 H   0  0  0  0  0
   -4.6216   35.5249   12.7310 H   0  0  0  0  0
   -4.1003   36.8726   10.7725 H   0  0  0  0  0
   -6.3350   34.4548   11.3999 H   0  0  0  0  0
   -6.7383   35.8778    9.6301 H   0  0  0  0  0
   -4.3914   34.5868    8.9963 H   0  0  0  0  0
   -7.1426   32.3536   10.8160 H   0  0  0  0  0
   -3.9014   33.7895    4.8144 H   0  0  0  0  0
   -4.7976   32.6545    3.7006 H   0  0  0  0  0
   -6.3706   31.4197    4.5026 H   0  0  0  0  0
   -4.8406   29.8765   12.7790 H   0  0  0  0  0
  1  2  2  0  0  0
  1  3  2  0  0  0
  1  4  1  0  0  0
  1  5  1  0  0  0
  5  6  1  0  0  0
  6  7  1  0  0  0
  6 25  1  0  0  0
  6 26  1  0  0  0
  7  8  1  0  0  0
  7  9  1  0  0  0
  7 27  1  0  0  0
  8 13  1  0  0  0
  9 10  1  0  0  0
  9 11  1  0  0  0
  9 28  1  0  0  0
 10 29  1  0  0  0
 11 12  1  0  0  0
 11 13  1  0  0  0
 11 30  1  0  0  0
 12 31  1  0  0  0
 13 14  1  0  0  0
 13 32  1  0  0  0
 14 15  1  0  0  0
 14 24  1  0  0  0
 15 16  2  0  0  0
 15 33  1  0  0  0
 16 17  1  0  0  0
 17 18  1  0  0  0
 17 24  2  0  0  0
 18 19  2  0  0  0
 18 20  1  0  0  0
 20 21  1  0  0  0
 20 36  1  0  0  0
 21 22  1  0  0  0
 21 23  2  0  0  0
 22 34  1  0  0  0
 22 35  1  0  0  0
 23 24  1  0  0  0
  4 37  1  0  0  0
M  END
$$$$
