EDO_1_A_207
  -ISIS-            3D

 10  9  0  0  0  0  0  0  0  0  1 V2000
  -24.0130   29.2800   -4.1410 C   0  0  0  0  0
  -22.9510   29.7350   -4.9640 O   0  0  0  0  0
  -23.5820   29.1280   -2.7470 C   0  0  0  0  0
  -23.5220   30.2950   -1.9990 O   0  0  0  0  0
  -24.3469   28.2980   -4.5388 H   0  0  0  0  0
  -24.8884   29.9593   -4.2193 H   0  0  0  0  0
  -23.0985   30.6491   -5.1678 H   0  0  0  0  0
  -22.6030   28.6046   -2.6975 H   0  0  0  0  0
  -24.2977   28.4528   -2.2301 H   0  0  0  0  0
  -22.7862   30.8037   -2.3151 H   0  0  0  0  0
  1  2  1  0  0  0
  1  3  1  0  0  0
  1  5  1  0  0  0
  1  6  1  0  0  0
  2  7  1  0  0  0
  3  4  1  0  0  0
  3  8  1  0  0  0
  3  9  1  0  0  0
  4 10  1  0  0  0
M  END
$$$$
