EDO_1_A_206
  -ISIS-            3D

 10  9  0  0  0  0  0  0  0  0  1 V2000
  -10.7600   23.4110    8.4770 C   0  0  0  0  0
  -11.3940   23.3950    7.2480 O   0  0  0  0  0
  -11.3440   22.3960    9.3970 C   0  0  0  0  0
  -12.7090   22.6390    9.6760 O   0  0  0  0  0
  -10.8354   24.4272    8.9191 H   0  0  0  0  0
   -9.6790   23.2132    8.3211 H   0  0  0  0  0
  -12.3268   23.4578    7.4180 H   0  0  0  0  0
  -10.7770   22.3906   10.3528 H   0  0  0  0  0
  -11.2359   21.3806    8.9585 H   0  0  0  0  0
  -13.0214   21.9629   10.2625 H   0  0  0  0  0
  1  2  1  0  0  0
  1  3  1  0  0  0
  1  5  1  0  0  0
  1  6  1  0  0  0
  2  7  1  0  0  0
  3  4  1  0  0  0
  3  8  1  0  0  0
  3  9  1  0  0  0
  4 10  1  0  0  0
M  END
$$$$
