EDO_1_A_401
  -ISIS-            3D

 10  9  0  0  0  0  0  0  0  0  1 V2000
    8.7190  -10.9050    2.3120 C   0  0  0  0  0
    8.1270  -12.2100    2.2420 O   0  0  0  0  0
    8.0540   -9.9800    1.2970 C   0  0  0  0  0
    6.6720   -9.8080    1.6310 O   0  0  0  0  0
    9.8065  -10.9863    2.1033 H   0  0  0  0  0
    8.6059  -10.4926    3.3371 H   0  0  0  0  0
    8.3699  -12.6896    3.0233 H   0  0  0  0  0
    8.1453  -10.4038    0.2744 H   0  0  0  0  0
    8.5560   -8.9895    1.2943 H   0  0  0  0  0
    6.2417   -9.3756    0.9053 H   0  0  0  0  0
  1  2  1  0  0  0
  1  3  1  0  0  0
  1  5  1  0  0  0
  1  6  1  0  0  0
  2  7  1  0  0  0
  3  4  1  0  0  0
  3  8  1  0  0  0
  3  9  1  0  0  0
  4 10  1  0  0  0
M  END
$$$$
