DMS_1_B_803
  -ISIS-            3D

 10  9  0  0  0  0  0  0  0  0  1 V2000
   24.4860   42.4060   -5.0690 S   0  0  0  0  0
   25.2540   41.1620   -4.9630 O   0  0  0  0  0
   23.2540   42.7810   -3.8730 C   0  0  0  0  0
   24.8190   43.5250   -6.3810 C   0  0  0  0  0
   22.7792   43.7533   -4.1155 H   0  0  0  0  0
   23.7185   42.8413   -2.8677 H   0  0  0  0  0
   22.4809   41.9859   -3.8744 H   0  0  0  0  0
   24.1459   44.4029   -6.3056 H   0  0  0  0  0
   24.6514   43.0182   -7.3531 H   0  0  0  0  0
   25.8727   43.8657   -6.3203 H   0  0  0  0  0
  1  2  2  0  0  0
  1  3  1  0  0  0
  1  4  1  0  0  0
  3  5  1  0  0  0
  3  6  1  0  0  0
  3  7  1  0  0  0
  4  8  1  0  0  0
  4  9  1  0  0  0
  4 10  1  0  0  0
M  END
$$$$
