DMS_1_A_402
  -ISIS-            3D

 10  9  0  0  0  0  0  0  0  0  1 V2000
    7.0440  -21.2560   28.8470 S   0  0  0  0  0
    6.9220  -22.7170   28.6880 O   0  0  0  0  0
    5.3900  -20.7290   29.2060 C   0  0  0  0  0
    7.7320  -21.0500   30.4630 C   0  0  0  0  0
    5.3945  -19.6648   29.5188 H   0  0  0  0  0
    4.9511  -21.3485   30.0152 H   0  0  0  0  0
    4.7657  -20.8306   28.2947 H   0  0  0  0  0
    7.6971  -19.9799   30.7527 H   0  0  0  0  0
    8.7898  -21.3839   30.4578 H   0  0  0  0  0
    7.1679  -21.6508   31.2060 H   0  0  0  0  0
  1  2  2  0  0  0
  1  3  1  0  0  0
  1  4  1  0  0  0
  3  5  1  0  0  0
  3  6  1  0  0  0
  3  7  1  0  0  0
  4  8  1  0  0  0
  4  9  1  0  0  0
  4 10  1  0  0  0
M  END
$$$$
