DMS_2_A_402
  -ISIS-            3D

 10  9  0  0  0  0  0  0  0  0  1 V2000
  -31.9720  -37.6030    1.7460 S   0  0  0  0  0
  -30.5500  -37.9410    2.0060 O   0  0  0  0  0
  -32.0770  -36.0710    0.9900 C   0  0  0  0  0
  -32.6050  -38.6050    0.5160 C   0  0  0  0  0
  -33.1341  -35.8320    0.7540 H   0  0  0  0  0
  -31.4816  -36.0556    0.0541 H   0  0  0  0  0
  -31.6842  -35.2913    1.6741 H   0  0  0  0  0
  -33.6527  -38.3194    0.2902 H   0  0  0  0  0
  -32.5935  -39.6613    0.8543 H   0  0  0  0  0
  -31.9969  -38.5213   -0.4080 H   0  0  0  0  0
  1  2  2  0  0  0
  1  3  1  0  0  0
  1  4  1  0  0  0
  3  5  1  0  0  0
  3  6  1  0  0  0
  3  7  1  0  0  0
  4  8  1  0  0  0
  4  9  1  0  0  0
  4 10  1  0  0  0
M  END
$$$$
