DMS_1_A_501
  -ISIS-            3D

 10  9  0  0  0  0  0  0  0  0  1 V2000
   -8.8160  -26.9360   21.4560 S   0  0  0  0  0
   -7.8810  -28.0110   20.9610 O   0  0  0  0  0
   -9.1000  -25.8310   20.0550 C   0  0  0  0  0
  -10.5090  -27.5940   21.5170 C   0  0  0  0  0
   -9.8690  -25.0775   20.3218 H   0  0  0  0  0
   -9.4363  -26.4109   19.1709 H   0  0  0  0  0
   -8.1537  -25.3076   19.8074 H   0  0  0  0  0
  -11.2209  -26.7744   21.7438 H   0  0  0  0  0
  -10.5709  -28.3590   22.3178 H   0  0  0  0  0
  -10.7724  -28.0618   20.5460 H   0  0  0  0  0
  1  2  2  0  0  0
  1  3  1  0  0  0
  1  4  1  0  0  0
  3  5  1  0  0  0
  3  6  1  0  0  0
  3  7  1  0  0  0
  4  8  1  0  0  0
  4  9  1  0  0  0
  4 10  1  0  0  0
M  END
$$$$
