DMS_1_A_403
  -ISIS-            3D

 10  9  0  0  0  0  0  0  0  0  1 V2000
    2.4650  -18.7480    8.0680 S   0  0  0  0  0
    3.7050  -18.8220    8.9910 O   0  0  0  0  0
    1.1280  -18.2270    9.1100 C   0  0  0  0  0
    1.9540  -20.4140    7.8810 C   0  0  0  0  0
    0.1670  -18.3129    8.5628 H   0  0  0  0  0
    1.2809  -17.1666    9.3974 H   0  0  0  0  0
    1.0870  -18.8462   10.0296 H   0  0  0  0  0
    0.9724  -20.4541    7.3660 H   0  0  0  0  0
    1.8719  -20.9119    8.8690 H   0  0  0  0  0
    2.6989  -20.9597    7.2664 H   0  0  0  0  0
  1  2  2  0  0  0
  1  3  1  0  0  0
  1  4  1  0  0  0
  3  5  1  0  0  0
  3  6  1  0  0  0
  3  7  1  0  0  0
  4  8  1  0  0  0
  4  9  1  0  0  0
  4 10  1  0  0  0
M  END
$$$$
