DMS_1_B_801
  -ISIS-            3D

 10  9  0  0  0  0  0  0  0  0  1 V2000
   23.6450   56.4160  -25.4350 S   0  0  0  0  0
   23.9850   57.8500  -25.4080 O   0  0  0  0  0
   22.0140   55.8870  -25.7810 C   0  0  0  0  0
   24.8670   55.2310  -25.1800 C   0  0  0  0  0
   21.6410   55.2603  -24.9455 H   0  0  0  0  0
   22.0064   55.2933  -26.7177 H   0  0  0  0  0
   21.3515   56.7683  -25.9010 H   0  0  0  0  0
   24.5857   54.5810  -24.3267 H   0  0  0  0  0
   25.8332   55.7269  -24.9555 H   0  0  0  0  0
   24.9809   54.6089  -26.0910 H   0  0  0  0  0
  1  2  2  0  0  0
  1  3  1  0  0  0
  1  4  1  0  0  0
  3  5  1  0  0  0
  3  6  1  0  0  0
  3  7  1  0  0  0
  4  8  1  0  0  0
  4  9  1  0  0  0
  4 10  1  0  0  0
M  END
$$$$
