DMS_1_A_802
  -ISIS-            3D

 10  9  0  0  0  0  0  0  0  0  1 V2000
   11.6050   49.6860  -15.2190 S   0  0  0  0  0
   11.6570   49.8230  -16.6680 O   0  0  0  0  0
   10.7430   48.3330  -14.4960 C   0  0  0  0  0
   12.3880   50.8840  -14.1870 C   0  0  0  0  0
   10.8135   48.3905  -13.3909 H   0  0  0  0  0
   11.1914   47.3796  -14.8422 H   0  0  0  0  0
    9.6762   48.3690  -14.7970 H   0  0  0  0  0
   12.2458   50.6114  -13.1216 H   0  0  0  0  0
   11.9413   51.8820  -14.3727 H   0  0  0  0  0
   13.4728   50.9174  -14.4150 H   0  0  0  0  0
  1  2  2  0  0  0
  1  3  1  0  0  0
  1  4  1  0  0  0
  3  5  1  0  0  0
  3  6  1  0  0  0
  3  7  1  0  0  0
  4  8  1  0  0  0
  4  9  1  0  0  0
  4 10  1  0  0  0
M  END
$$$$
