DMS_1_A_404
  -ISIS-            3D

 10  9  0  0  0  0  0  0  0  0  1 V2000
  119.8560   -1.7750   -6.5230 S   0  0  0  0  0
  119.1620   -0.7100   -7.3050 O   0  0  0  0  0
  118.5760   -2.7940   -5.8020 C   0  0  0  0  0
  120.4530   -1.0080   -5.0390 C   0  0  0  0  0
  119.0293   -3.5257   -5.1024 H   0  0  0  0  0
  118.0496   -3.3452   -6.6079 H   0  0  0  0  0
  117.8446   -2.1633   -5.2562 H   0  0  0  0  0
  120.8638   -1.7797   -4.3564 H   0  0  0  0  0
  119.6320   -0.4631   -4.5293 H   0  0  0  0  0
  121.2591   -0.2904   -5.2953 H   0  0  0  0  0
  1  2  2  0  0  0
  1  3  1  0  0  0
  1  4  1  0  0  0
  3  5  1  0  0  0
  3  6  1  0  0  0
  3  7  1  0  0  0
  4  8  1  0  0  0
  4  9  1  0  0  0
  4 10  1  0  0  0
M  END
$$$$
