DMS_1_A_402
  -ISIS-            3D

 10  9  0  0  0  0  0  0  0  0  1 V2000
  119.9330  -27.8690   22.1530 S   0  0  0  0  0
  120.7370  -26.9120   22.9500 O   0  0  0  0  0
  118.8690  -26.9230   21.1280 C   0  0  0  0  0
  118.7050  -28.5490   23.2850 C   0  0  0  0  0
  118.1520  -27.5923   20.6094 H   0  0  0  0  0
  119.4713  -26.3865   20.3666 H   0  0  0  0  0
  118.3082  -26.1811   21.7321 H   0  0  0  0  0
  117.9896  -29.1831   22.7224 H   0  0  0  0  0
  118.1560  -27.7291   23.7914 H   0  0  0  0  0
  119.2164  -29.1709   24.0479 H   0  0  0  0  0
  1  2  2  0  0  0
  1  3  1  0  0  0
  1  4  1  0  0  0
  3  5  1  0  0  0
  3  6  1  0  0  0
  3  7  1  0  0  0
  4  8  1  0  0  0
  4  9  1  0  0  0
  4 10  1  0  0  0
M  END
$$$$
