DMS_1_A_402
  -ISIS-            3D

 10  9  0  0  0  0  0  0  0  0  1 V2000
    6.1210   -1.0020   -6.3090 S   0  0  0  0  0
    6.9870   -0.6040   -7.4490 O   0  0  0  0  0
    7.1380   -0.9890   -4.8390 C   0  0  0  0  0
    5.8810   -2.7470   -6.4270 C   0  0  0  0  0
    6.5651   -1.3994   -3.9823 H   0  0  0  0  0
    7.4320    0.0551   -4.6072 H   0  0  0  0  0
    8.0526   -1.5957   -4.9985 H   0  0  0  0  0
    5.3413   -3.1151   -5.5304 H   0  0  0  0  0
    6.8570   -3.2673   -6.5096 H   0  0  0  0  0
    5.2742   -2.9744   -7.3273 H   0  0  0  0  0
  1  2  2  0  0  0
  1  3  1  0  0  0
  1  4  1  0  0  0
  3  5  1  0  0  0
  3  6  1  0  0  0
  3  7  1  0  0  0
  4  8  1  0  0  0
  4  9  1  0  0  0
  4 10  1  0  0  0
M  END
$$$$
