DMS_1_A_401
  -ISIS-            3D

 10  9  0  0  0  0  0  0  0  0  1 V2000
  -21.3390  -11.1300    8.5390 S   0  0  0  0  0
  -20.3510  -10.0330    8.4790 O   0  0  0  0  0
  -22.6410  -10.6460    7.4370 C   0  0  0  0  0
  -22.1810  -10.9080   10.0720 C   0  0  0  0  0
  -23.4983  -11.3422    7.5401 H   0  0  0  0  0
  -22.2715  -10.6855    6.3919 H   0  0  0  0  0
  -22.9760   -9.6129    7.6635 H   0  0  0  0  0
  -23.0470  -11.5987   10.1289 H   0  0  0  0  0
  -22.5378   -9.8623   10.1712 H   0  0  0  0  0
  -21.4886  -11.1339   10.9086 H   0  0  0  0  0
  1  2  2  0  0  0
  1  3  1  0  0  0
  1  4  1  0  0  0
  3  5  1  0  0  0
  3  6  1  0  0  0
  3  7  1  0  0  0
  4  8  1  0  0  0
  4  9  1  0  0  0
  4 10  1  0  0  0
M  END
$$$$
