DMS_1_A_406
  -ISIS-            3D

 10  9  0  0  0  0  0  0  0  0  1 V2000
   -0.7310   -2.5430   17.0070 S   0  0  0  0  0
   -0.5920   -4.0170   17.0230 O   0  0  0  0  0
   -2.1030   -2.2200   15.9430 C   0  0  0  0  0
    0.6030   -1.9390   16.0270 C   0  0  0  0  0
   -2.1938   -1.1282   15.7693 H   0  0  0  0  0
   -3.0353   -2.5865   16.4194 H   0  0  0  0  0
   -1.9658   -2.7361   14.9706 H   0  0  0  0  0
    0.4797   -0.8501   15.8557 H   0  0  0  0  0
    0.6310   -2.4633   15.0497 H   0  0  0  0  0
    1.5611   -2.1125   16.5584 H   0  0  0  0  0
  1  2  2  0  0  0
  1  3  1  0  0  0
  1  4  1  0  0  0
  3  5  1  0  0  0
  3  6  1  0  0  0
  3  7  1  0  0  0
  4  8  1  0  0  0
  4  9  1  0  0  0
  4 10  1  0  0  0
M  END
$$$$
