DMS_1_B_502
  -ISIS-            3D

 10  9  0  0  0  0  0  0  0  0  1 V2000
   -6.9050    3.1810   12.0180 S   0  0  0  0  0
   -7.8280    2.1200   11.5310 O   0  0  0  0  0
   -7.6130    4.6900   11.4690 C   0  0  0  0  0
   -5.4920    3.1750   10.9430 C   0  0  0  0  0
   -6.9174    5.5299   11.6713 H   0  0  0  0  0
   -8.5600    4.8736   12.0167 H   0  0  0  0  0
   -7.8300    4.6463   10.3817 H   0  0  0  0  0
   -4.8441    4.0469   11.1673 H   0  0  0  0  0
   -5.8126    3.2156    9.8816 H   0  0  0  0  0
   -4.9101    2.2453   11.1082 H   0  0  0  0  0
  1  2  2  0  0  0
  1  3  1  0  0  0
  1  4  1  0  0  0
  3  5  1  0  0  0
  3  6  1  0  0  0
  3  7  1  0  0  0
  4  8  1  0  0  0
  4  9  1  0  0  0
  4 10  1  0  0  0
M  END
$$$$
