DMS_1_B_402
  -ISIS-            3D

 10  9  0  0  0  0  0  0  0  0  1 V2000
   -2.9110    6.0870   25.2580 S   0  0  0  0  0
   -4.2420    6.7780   25.5040 O   0  0  0  0  0
   -1.8780    6.1670   26.7480 C   0  0  0  0  0
   -3.2000    4.2900   25.1900 C   0  0  0  0  0
   -0.9454    5.5891   26.5849 H   0  0  0  0  0
   -2.4312    5.7464   27.6126 H   0  0  0  0  0
   -1.6202    7.2254   26.9567 H   0  0  0  0  0
   -2.2308    3.7626   25.0767 H   0  0  0  0  0
   -3.8468    4.0573   24.3194 H   0  0  0  0  0
   -3.7013    3.9542   26.1208 H   0  0  0  0  0
  1  2  2  0  0  0
  1  3  1  0  0  0
  1  4  1  0  0  0
  3  5  1  0  0  0
  3  6  1  0  0  0
  3  7  1  0  0  0
  4  8  1  0  0  0
  4  9  1  0  0  0
  4 10  1  0  0  0
M  END
$$$$
