DMS_1_B_401
  -ISIS-            3D

 10  9  0  0  0  0  0  0  0  0  1 V2000
   -6.3490    4.1550   11.7410 S   0  0  0  0  0
   -7.4850    3.4110   11.0420 O   0  0  0  0  0
   -6.8130    5.8730   11.9060 C   0  0  0  0  0
   -4.9170    4.2290   10.6220 C   0  0  0  0  0
   -5.9743    6.4430   12.3552 H   0  0  0  0  0
   -7.7015    5.9527   12.5652 H   0  0  0  0  0
   -7.0563    6.2959   10.9097 H   0  0  0  0  0
   -4.1095    4.8247   11.0945 H   0  0  0  0  0
   -5.2151    4.6996    9.6627 H   0  0  0  0  0
   -4.5498    3.2001   10.4302 H   0  0  0  0  0
  1  2  2  0  0  0
  1  3  1  0  0  0
  1  4  1  0  0  0
  3  5  1  0  0  0
  3  6  1  0  0  0
  3  7  1  0  0  0
  4  8  1  0  0  0
  4  9  1  0  0  0
  4 10  1  0  0  0
M  END
$$$$
