AMP_1_A_201
  -ISIS-            3D

 36 38  0  0  0  0  0  0  0  0  1 V2000
   10.6380   24.8720   10.4830 P   0  0  0  0  0
   10.5980   25.7650    9.2660 O   0  0  0  0  0
   11.2130   25.4240   11.7170 O   0  0  0  0  0
   11.3750   23.6440   10.1180 O   0  0  0  0  0
    9.1390   24.4790   10.8560 O   0  0  0  0  0
    8.2800   23.8610    9.9030 C   0  0  0  0  0
    6.9590   24.5790    9.8320 C   0  0  0  0  0
    6.3420   24.5500   11.1510 O   0  0  0  0  0
    7.0740   26.0520    9.4630 C   0  0  0  0  0
    5.8660   26.4790    8.8350 O   0  0  0  0  0
    7.2000   26.7180   10.8320 C   0  0  0  0  0
    6.8480   28.0820   10.8540 O   0  0  0  0  0
    6.2380   25.8720   11.6650 C   0  0  0  0  0
    6.5580   25.8280   13.0960 N   0  0  0  0  0
    7.6210   26.3350   13.7310 C   0  0  0  0  0
    7.5100   26.0390   15.0370 N   0  0  0  0  0
    6.3830   25.3280   15.1920 C   0  0  0  0  0
    5.8050   24.7800   16.3030 C   0  0  0  0  0
    6.2630   24.8130   17.6660 N   0  0  0  0  0
    4.6570   24.1180   16.1910 N   0  0  0  0  0
    4.0590   23.9810   14.9800 C   0  0  0  0  0
    4.6250   24.5200   13.8910 N   0  0  0  0  0
    5.7910   25.1950   14.0050 C   0  0  0  0  0
    8.1238   22.8032   10.2016 H   0  0  0  0  0
    8.7406   23.8399    8.8935 H   0  0  0  0  0
    6.3024   24.0530    9.1068 H   0  0  0  0  0
    7.9392   26.2660    8.8046 H   0  0  0  0  0
    5.8059   27.4178    8.9680 H   0  0  0  0  0
    8.2429   26.6093   11.1862 H   0  0  0  0  0
    6.8454   28.3746   11.7559 H   0  0  0  0  0
    5.1946   26.2372   11.5545 H   0  0  0  0  0
    8.4930   26.9050   13.3897 H   0  0  0  0  0
    5.6606   24.3344   18.3470 H   0  0  0  0  0
    7.1469   25.3080   17.8409 H   0  0  0  0  0
    3.1096   23.4301   14.8938 H   0  0  0  0  0
   11.0175   23.2144    9.1360 H   0  0  0  0  0
  1  2  2  0  0  0
  1  3  2  0  0  0
  1  4  1  0  0  0
  1  5  1  0  0  0
  5  6  1  0  0  0
  6  7  1  0  0  0
  6 24  1  0  0  0
  6 25  1  0  0  0
  7  8  1  0  0  0
  7  9  1  0  0  0
  7 26  1  0  0  0
  8 13  1  0  0  0
  9 10  1  0  0  0
  9 11  1  0  0  0
  9 27  1  0  0  0
 10 28  1  0  0  0
 11 12  1  0  0  0
 11 13  1  0  0  0
 11 29  1  0  0  0
 12 30  1  0  0  0
 13 14  1  0  0  0
 13 31  1  0  0  0
 14 15  1  0  0  0
 14 23  1  0  0  0
 15 16  2  0  0  0
 15 32  1  0  0  0
 16 17  1  0  0  0
 17 18  2  0  0  0
 17 23  1  0  0  0
 18 19  1  0  0  0
 18 20  1  0  0  0
 19 33  1  0  0  0
 19 34  1  0  0  0
 20 21  2  0  0  0
 21 22  1  0  0  0
 21 35  1  0  0  0
 22 23  2  0  0  0
  4 36  1  0  0  0
M  END
$$$$
