DMS_1_B_702
  -ISIS-            3D

 10  9  0  0  0  0  0  0  0  0  1 V2000
   25.3950   -9.4270  -37.5520 S   0  0  0  0  0
   24.4630   -8.9780  -38.6360 O   0  0  0  0  0
   27.0290   -8.9850  -38.1040 C   0  0  0  0  0
   25.5400  -11.1910  -37.7220 C   0  0  0  0  0
   27.7865   -9.4151  -37.4173 H   0  0  0  0  0
   27.1297   -7.8801  -38.1022 H   0  0  0  0  0
   27.2049   -9.3629  -39.1321 H   0  0  0  0  0
   26.3307  -11.5702  -37.0428 H   0  0  0  0  0
   25.7919  -11.4590  -38.7686 H   0  0  0  0  0
   24.5751  -11.6658  -37.4491 H   0  0  0  0  0
  1  2  2  0  0  0
  1  3  1  0  0  0
  1  4  1  0  0  0
  3  5  1  0  0  0
  3  6  1  0  0  0
  3  7  1  0  0  0
  4  8  1  0  0  0
  4  9  1  0  0  0
  4 10  1  0  0  0
M  END
$$$$
