EDO_1_A_204
  -ISIS-            3D

 10  9  0  0  0  0  0  0  0  0  1 V2000
  -13.4750   10.4560    2.8510 C   0  0  0  0  0
  -12.2120   10.1490    2.3040 O   0  0  0  0  0
  -13.3970   10.9330    4.2410 C   0  0  0  0  0
  -12.4070   11.9220    4.4140 O   0  0  0  0  0
  -14.1231    9.5576    2.7814 H   0  0  0  0  0
  -13.9510   11.2315    2.2131 H   0  0  0  0  0
  -11.6240   10.8424    2.5821 H   0  0  0  0  0
  -13.1656   10.0788    4.9137 H   0  0  0  0  0
  -14.3815   11.3335    4.5648 H   0  0  0  0  0
  -12.3999   12.1861    5.3244 H   0  0  0  0  0
  1  2  1  0  0  0
  1  3  1  0  0  0
  1  5  1  0  0  0
  1  6  1  0  0  0
  2  7  1  0  0  0
  3  4  1  0  0  0
  3  8  1  0  0  0
  3  9  1  0  0  0
  4 10  1  0  0  0
M  END
$$$$
