DMS_2_A_403
  -ISIS-            3D

 10  9  0  0  0  0  0  0  0  0  1 V2000
   -2.3800  -19.0270   -8.2120 S   0  0  0  0  0
   -3.6190  -18.6500   -8.9270 O   0  0  0  0  0
   -1.1070  -18.0390   -8.9390 C   0  0  0  0  0
   -1.9150  -20.5720   -8.9630 C   0  0  0  0  0
   -0.1135  -18.3884   -8.5911 H   0  0  0  0  0
   -1.2410  -16.9822   -8.6298 H   0  0  0  0  0
   -1.1516  -18.0979  -10.0461 H   0  0  0  0  0
   -0.9017  -20.8664   -8.6212 H   0  0  0  0  0
   -1.9206  -20.4847  -10.0692 H   0  0  0  0  0
   -2.6361  -21.3586   -8.6599 H   0  0  0  0  0
  1  2  2  0  0  0
  1  3  1  0  0  0
  1  4  1  0  0  0
  3  5  1  0  0  0
  3  6  1  0  0  0
  3  7  1  0  0  0
  4  8  1  0  0  0
  4  9  1  0  0  0
  4 10  1  0  0  0
M  END
$$$$
