DMS_1_A_401
  -ISIS-            3D

 10  9  0  0  0  0  0  0  0  0  1 V2000
    7.0490  -28.1550   21.4280 S   0  0  0  0  0
    7.7190  -27.1090   22.2300 O   0  0  0  0  0
    5.8630  -28.8260   22.5410 C   0  0  0  0  0
    5.9530  -27.2930   20.3640 C   0  0  0  0  0
    5.1849  -29.5159   21.9982 H   0  0  0  0  0
    5.2650  -28.0172   23.0091 H   0  0  0  0  0
    6.3849  -29.3946   23.3377 H   0  0  0  0  0
    5.2802  -28.0116   19.8527 H   0  0  0  0  0
    6.5381  -26.7460   19.5966 H   0  0  0  0  0
    5.3439  -26.5647   20.9377 H   0  0  0  0  0
  1  2  2  0  0  0
  1  3  1  0  0  0
  1  4  1  0  0  0
  3  5  1  0  0  0
  3  6  1  0  0  0
  3  7  1  0  0  0
  4  8  1  0  0  0
  4  9  1  0  0  0
  4 10  1  0  0  0
M  END
$$$$
