SAM_1_A_301
  -ISIS-            3D

 50 52  0  0  0  0  0  0  0  0  1 V2000
  -86.7240   19.4480   24.4840 N   0  3  0  0  0
  -88.0150   19.0560   24.9550 C   0  0  0  0  0
  -89.0120   19.9220   24.2790 C   0  0  0  0  0
  -88.8280   20.2210   23.0990 O   0  0  0  0  0
  -89.9910   20.2950   24.9140 O   0  0  0  0  0
  -88.0640   19.2140   26.4560 C   0  0  0  0  0
  -86.8730   18.4920   27.0470 C   0  0  0  0  0
  -87.1340   18.0220   28.5950 S   0  0  0  0  0
  -87.4160   19.3460   29.4990 C   0  0  0  0  0
  -85.7710   17.3010   29.2110 C   0  0  0  0  0
  -85.4830   15.9710   28.5360 C   0  0  0  0  0
  -84.1650   15.5220   28.7720 O   0  0  0  0  0
  -86.3930   14.8870   29.0490 C   0  0  0  0  0
  -87.2220   14.5060   27.9710 O   0  0  0  0  0
  -85.4550   13.7890   29.4780 C   0  0  0  0  0
  -85.9480   12.5150   29.1300 O   0  0  0  0  0
  -84.1720   14.1140   28.7700 C   0  0  0  0  0
  -83.0320   13.5050   29.4770 N   0  0  0  0  0
  -82.6670   13.7060   30.7300 C   0  0  0  0  0
  -81.6030   12.9660   31.0430 N   0  0  0  0  0
  -81.2700   12.2650   29.9790 C   0  0  0  0  0
  -80.2460   11.2790   29.6190 C   0  0  0  0  0
  -79.3170   10.8760   30.4780 N   0  0  0  0  0
  -80.2550   10.7890   28.3950 N   0  0  0  0  0
  -81.1550   11.1580   27.5170 C   0  0  0  0  0
  -82.1050   12.0400   27.7710 N   0  0  0  0  0
  -82.2200   12.6180   28.9590 C   0  0  0  0  0
  -86.4936   20.3973   24.7676 H   0  0  0  0  0
  -86.6721   19.4081   23.4699 H   0  0  0  0  0
  -88.2147   17.9946   24.6712 H   0  0  0  0  0
  -89.0207   18.7777   26.8284 H   0  0  0  0  0
  -88.0510   20.2885   26.7524 H   0  0  0  0  0
  -85.9584   19.1251   26.9991 H   0  0  0  0  0
  -86.6715   17.5643   26.4674 H   0  0  0  0  0
  -87.5543   19.0822   30.5697 H   0  0  0  0  0
  -88.3401   19.8794   29.1910 H   0  0  0  0  0
  -86.5862   20.0840   29.4544 H   0  0  0  0  0
  -85.8510   17.1584   30.3104 H   0  0  0  0  0
  -84.9064   17.9849   29.0591 H   0  0  0  0  0
  -85.5892   16.0671   27.4339 H   0  0  0  0  0
  -87.0214   15.2132   29.9034 H   0  0  0  0  0
  -87.4255   13.5855   28.0879 H   0  0  0  0  0
  -85.3212   13.8529   30.5795 H   0  0  0  0  0
  -85.2810   11.8781   29.3530 H   0  0  0  0  0
  -84.1875   13.7402   27.7238 H   0  0  0  0  0
  -83.0968   14.3681   31.4927 H   0  0  0  0  0
  -81.1135   10.7136   26.5092 H   0  0  0  0  0
  -78.6497   10.1848   30.1137 H   0  0  0  0  0
  -79.3393   11.2819   31.4222 H   0  0  0  0  0
  -85.9868   18.8326   24.8106 H   0  0  0  0  0
  1  2  1  0  0  0
  1 28  1  0  0  0
  1 29  1  0  0  0
  2  3  1  0  0  0
  2  6  1  0  0  0
  2 30  1  0  0  0
  3  4  2  0  0  0
  3  5  2  0  0  0
  6  7  1  0  0  0
  6 31  1  0  0  0
  6 32  1  0  0  0
  7  8  1  0  0  0
  7 33  1  0  0  0
  7 34  1  0  0  0
  8  9  1  0  0  0
  8 10  1  0  0  0
  9 35  1  0  0  0
  9 36  1  0  0  0
  9 37  1  0  0  0
 10 11  1  0  0  0
 10 38  1  0  0  0
 10 39  1  0  0  0
 11 12  1  0  0  0
 11 13  1  0  0  0
 11 40  1  0  0  0
 12 17  1  0  0  0
 13 14  1  0  0  0
 13 15  1  0  0  0
 13 41  1  0  0  0
 14 42  1  0  0  0
 15 16  1  0  0  0
 15 17  1  0  0  0
 15 43  1  0  0  0
 16 44  1  0  0  0
 17 18  1  0  0  0
 17 45  1  0  0  0
 18 19  1  0  0  0
 18 27  1  0  0  0
 19 20  2  0  0  0
 19 46  1  0  0  0
 20 21  1  0  0  0
 21 22  1  0  0  0
 21 27  1  0  0  0
 22 23  1  0  0  0
 22 24  1  0  0  0
 23 48  1  0  0  0
 23 49  1  0  0  0
 24 25  2  0  0  0
 25 26  1  0  0  0
 25 47  1  0  0  0
 26 27  2  0  0  0
  1 50  1  0  0  0
M  END
$$$$
