DMS_1_B_1303
  -ISIS-            3D

 11 10  0  0  0  0  0  0  0  0  1 V2000
  -46.8090   -4.6770    7.9590 S   0  0  0  0  0
  -45.1220   -5.2140    8.3920 O   0  0  0  0  0
  -47.9280   -6.1250    7.9390 C   0  0  0  0  0
  -46.9990   -4.0710    6.2440 C   0  0  0  0  0
  -44.3146   -4.1910    8.3493 H   0  0  0  0  0
  -48.9501   -5.7754    7.6907 H   0  0  0  0  0
  -47.9109   -6.5847    8.9474 H   0  0  0  0  0
  -47.5611   -6.8435    7.1788 H   0  0  0  0  0
  -48.0609   -3.7961    6.0845 H   0  0  0  0  0
  -46.6912   -4.8778    5.5490 H   0  0  0  0  0
  -46.3467   -3.1834    6.1207 H   0  0  0  0  0
  1  2  1  0  0  0
  1  3  1  0  0  0
  1  4  1  0  0  0
  2  5  1  0  0  0
  3  6  1  0  0  0
  3  7  1  0  0  0
  3  8  1  0  0  0
  4  9  1  0  0  0
  4 10  1  0  0  0
  4 11  1  0  0  0
M  END
$$$$
