DMS_1_B_1302
  -ISIS-            3D

 11 10  0  0  0  0  0  0  0  0  1 V2000
  -15.8370   -1.9890   21.4180 S   0  0  0  0  0
  -14.4910   -2.0760   20.2090 O   0  0  0  0  0
  -17.0610   -3.2980   21.1200 C   0  0  0  0  0
  -16.9270   -0.5890   21.0870 C   0  0  0  0  0
  -13.6717   -1.0788   20.3954 H   0  0  0  0  0
  -17.8867   -3.1867   21.8511 H   0  0  0  0  0
  -16.5562   -4.2749   21.2599 H   0  0  0  0  0
  -17.4382   -3.2077   20.0816 H   0  0  0  0  0
  -17.7583   -0.6024   21.8200 H   0  0  0  0  0
  -17.3137   -0.6700   20.0514 H   0  0  0  0  0
  -16.3341    0.3406   21.2009 H   0  0  0  0  0
  1  2  1  0  0  0
  1  3  1  0  0  0
  1  4  1  0  0  0
  2  5  1  0  0  0
  3  6  1  0  0  0
  3  7  1  0  0  0
  3  8  1  0  0  0
  4  9  1  0  0  0
  4 10  1  0  0  0
  4 11  1  0  0  0
M  END
$$$$
