DMX_1_C_201
  -ISIS-            3D

 36 36  0  0  0  0  0  0  0  0  1 V2000
  -14.6610   -5.3810   -5.4850 C   0  0  0  0  0
  -14.4020   -6.6520   -5.0060 C   0  0  0  0  0
  -15.1520   -7.1580   -3.9490 C   0  0  0  0  0
  -16.1810   -6.4140   -3.3770 C   0  0  0  0  0
  -16.4250   -5.1310   -3.8640 C   0  0  0  0  0
  -15.6730   -4.6240   -4.9160 C   0  0  0  0  0
  -17.0210   -6.9800   -2.2110 C   0  0  0  0  0
  -18.1950   -7.7710   -2.6280 N   0  0  0  0  0
  -18.9060   -8.2310   -1.4510 C   0  0  0  0  0
  -19.8200   -7.4830    0.7430 C   0  0  0  0  0
  -18.5910   -6.8850    1.9330 S   0  0  0  0  0
  -17.8090   -8.9520   -3.3900 C   0  0  0  0  0
  -19.1190   -6.9900   -3.4360 C   0  0  0  0  0
  -18.9860   -7.3310    3.3020 O   0  5  0  0  0
  -17.2260   -7.4000    1.5540 O   0  0  0  0  0
  -18.5280   -5.3800    2.0330 O   0  0  0  0  0
  -19.3090   -7.0250   -0.6130 C   0  0  0  0  0
  -14.0654   -4.9714   -6.3187 H   0  0  0  0  0
  -13.5991   -7.2609   -5.4557 H   0  0  0  0  0
  -14.9252   -8.1675   -3.5660 H   0  0  0  0  0
  -17.2211   -4.5091   -3.4206 H   0  0  0  0  0
  -15.8806   -3.6101   -5.2991 H   0  0  0  0  0
  -17.3323   -6.0994   -1.6210 H   0  0  0  0  0
  -16.3916   -7.6211   -1.5514 H   0  0  0  0  0
  -18.2206   -8.9036   -0.8839 H   0  0  0  0  0
  -19.7876   -8.8385   -1.7614 H   0  0  0  0  0
  -20.7868   -7.0170    1.0260 H   0  0  0  0  0
  -19.8948   -8.5827    0.8618 H   0  0  0  0  0
  -18.7123   -9.5629   -3.6173 H   0  0  0  0  0
  -17.0877   -9.5568   -2.7946 H   0  0  0  0  0
  -17.3349   -8.6408   -4.3469 H   0  0  0  0  0
  -20.0716   -7.5500   -3.5747 H   0  0  0  0  0
  -18.6622   -6.8085   -4.4348 H   0  0  0  0  0
  -19.3146   -6.0047   -2.9603 H   0  0  0  0  0
  -20.1649   -6.5142   -1.1115 H   0  0  0  0  0
  -18.5545   -6.2349   -0.4727 H   0  0  0  0  0
  1  2  2  0  0  0
  1  6  1  0  0  0
  1 18  1  0  0  0
  2  3  1  0  0  0
  2 19  1  0  0  0
  3  4  2  0  0  0
  3 20  1  0  0  0
  4  5  1  0  0  0
  4  7  1  0  0  0
  5  6  2  0  0  0
  5 21  1  0  0  0
  6 22  1  0  0  0
  7  8  1  0  0  0
  7 23  1  0  0  0
  7 24  1  0  0  0
  8  9  1  0  0  0
  8 12  1  0  0  0
  8 13  1  0  0  0
  9 17  1  0  0  0
  9 25  1  0  0  0
  9 26  1  0  0  0
 10 11  1  0  0  0
 10 17  1  0  0  0
 10 27  1  0  0  0
 10 28  1  0  0  0
 11 14  1  0  0  0
 11 15  2  0  0  0
 11 16  2  0  0  0
 12 29  1  0  0  0
 12 30  1  0  0  0
 12 31  1  0  0  0
 13 32  1  0  0  0
 13 33  1  0  0  0
 13 34  1  0  0  0
 17 35  1  0  0  0
 17 36  1  0  0  0
M  END
$$$$
