EDO_1_A_405
  -ISIS-            3D

 10  9  0  0  0  0  0  0  0  0  1 V2000
    1.0880  -11.0750  -18.2900 C   0  0  0  0  0
    0.4010  -11.2240  -17.0390 O   0  0  0  0  0
    0.0590  -10.7030  -19.3500 C   0  0  0  0  0
   -0.8600  -11.7870  -19.4540 O   0  0  0  0  0
    1.6159  -12.0169  -18.5469 H   0  0  0  0  0
    1.8533  -10.2784  -18.1898 H   0  0  0  0  0
   -0.3681  -11.7540  -17.2159 H   0  0  0  0  0
    0.5460  -10.5107  -20.3294 H   0  0  0  0  0
   -0.4891   -9.7815  -19.0648 H   0  0  0  0  0
   -0.5719  -12.3637  -20.1493 H   0  0  0  0  0
  1  2  1  0  0  0
  1  3  1  0  0  0
  1  5  1  0  0  0
  1  6  1  0  0  0
  2  7  1  0  0  0
  3  4  1  0  0  0
  3  8  1  0  0  0
  3  9  1  0  0  0
  4 10  1  0  0  0
M  END
$$$$
