EDO_1_A_404
  -ISIS-            3D

 10  9  0  0  0  0  0  0  0  0  1 V2000
  -11.4750  -10.3230  -17.3100 C   0  0  0  0  0
  -11.2190  -10.1330  -15.9090 O   0  0  0  0  0
  -12.9220  -10.7420  -17.5750 C   0  0  0  0  0
  -13.1640  -12.0640  -17.0680 O   0  0  0  0  0
  -10.7770  -11.0864  -17.7148 H   0  0  0  0  0
  -11.2626   -9.3727  -17.8452 H   0  0  0  0  0
  -10.3137   -9.8715  -15.8062 H   0  0  0  0  0
  -13.1276  -10.7400  -18.6656 H   0  0  0  0  0
  -13.6307  -10.0265  -17.1078 H   0  0  0  0  0
  -12.9009  -12.0546  -16.1556 H   0  0  0  0  0
  1  2  1  0  0  0
  1  3  1  0  0  0
  1  5  1  0  0  0
  1  6  1  0  0  0
  2  7  1  0  0  0
  3  4  1  0  0  0
  3  8  1  0  0  0
  3  9  1  0  0  0
  4 10  1  0  0  0
M  END
$$$$
