EDO_1_A_406
  -ISIS-            3D

 10  9  0  0  0  0  0  0  0  0  1 V2000
   17.2000    9.9490  -33.5330 C   0  0  0  0  0
   18.4170   10.6900  -33.3770 O   0  0  0  0  0
   16.4880    9.8200  -32.1900 C   0  0  0  0  0
   16.1370   11.1290  -31.7260 O   0  0  0  0  0
   17.4346    8.9429  -33.9399 H   0  0  0  0  0
   16.5404   10.4587  -34.2673 H   0  0  0  0  0
   18.7321   10.9299  -34.2385 H   0  0  0  0  0
   17.1473    9.3186  -31.4501 H   0  0  0  0  0
   15.5689    9.2062  -32.2948 H   0  0  0  0  0
   15.8779   11.0628  -30.8162 H   0  0  0  0  0
  1  2  1  0  0  0
  1  3  1  0  0  0
  1  5  1  0  0  0
  1  6  1  0  0  0
  2  7  1  0  0  0
  3  4  1  0  0  0
  3  8  1  0  0  0
  3  9  1  0  0  0
  4 10  1  0  0  0
M  END
$$$$
