EDO_1_B_705
  -ISIS-            3D

 10  9  0  0  0  0  0  0  0  0  1 V2000
   10.9850   15.7640  -14.7100 C   0  0  0  0  0
   11.6580   16.0370  -13.4750 O   0  0  0  0  0
   11.9880   15.2650  -15.7450 C   0  0  0  0  0
   11.5760   15.6930  -17.0520 O   0  0  0  0  0
   10.5166   16.7091  -15.0557 H   0  0  0  0  0
   10.1644   15.0326  -14.5555 H   0  0  0  0  0
   11.7970   15.2170  -13.0200 H   0  0  0  0  0
   12.0919   14.1604  -15.7012 H   0  0  0  0  0
   12.9920   15.6955  -15.5475 H   0  0  0  0  0
   11.3434   14.9289  -17.5633 H   0  0  0  0  0
  1  2  1  0  0  0
  1  3  1  0  0  0
  1  5  1  0  0  0
  1  6  1  0  0  0
  2  7  1  0  0  0
  3  4  1  0  0  0
  3  8  1  0  0  0
  3  9  1  0  0  0
  4 10  1  0  0  0
M  END
$$$$
