SV6_1_A_401
  -ISIS-            3D

103107  0  0  0  0  0  0  0  0  1 V2000
   11.8600    8.5610   26.8520 C   0  0  0  0  0
   12.1250   10.1540   28.4840 C   0  0  0  0  0
   12.5470    9.1620   29.3510 C   0  0  0  0  0
   11.4530    8.1010   25.4310 C   0  0  0  0  0
   12.2510    7.5700   27.7260 C   0  0  0  0  0
   11.2890    8.8250   24.5050 O   0  0  0  0  0
   11.7760    9.8290   27.2360 N   0  0  0  0  0
   12.6050    7.8910   28.9600 N   0  0  0  0  0
   11.2950    6.6610   25.3030 N   0  0  0  0  0
   10.8510    6.0780   24.0600 C   0  0  0  0  0
   10.0520    4.8890   24.5920 C   0  0  0  0  0
   10.1440    4.4450   25.7090 O   0  0  0  0  0
   11.9570    5.5600   23.1130 C   0  0  0  0  0
   12.8860    6.7110   22.6170 C   0  0  0  0  0
   13.9400    6.1180   21.6610 C   0  0  0  0  0
   14.7940    5.0590   22.4040 C   0  0  0  0  0
   13.9540    3.9120   23.0090 C   0  0  0  0  0
   12.7140    4.4220   23.8070 C   0  0  0  0  0
    9.1020    4.2780   23.6590 N   0  0  0  0  0
    8.3790    3.1410   24.1680 C   0  0  0  0  0
    6.8620    3.3850   24.1550 C   0  0  0  0  0
    6.3750    3.8920   22.7760 C   0  0  0  0  0
    6.5410    4.4730   25.1960 C   0  0  0  0  0
    6.1420    2.0600   24.5530 C   0  0  0  0  0
    8.7320    1.9320   23.3220 C   0  0  0  0  0
    8.5260    1.8480   22.1350 O   0  0  0  0  0
    8.4690   -1.1690   23.1980 C   0  0  0  0  0
    9.3730    0.7920   24.0180 N   0  0  0  0  0
    7.8400   -1.4580   24.1690 O   0  0  0  0  0
    9.7190   -0.4260   23.3370 C   0  0  0  0  0
   10.8210   -1.1480   24.2180 C   0  0  0  0  0
   10.8570   -0.2980   25.5010 C   0  0  0  0  0
   12.2890   -1.0260   23.3770 C   0  0  0  0  0
   12.9660    0.0070   23.9190 C   0  0  0  0  0
    9.7170    0.6640   25.2930 C   0  0  0  0  0
   12.3990    0.2270   25.3090 C   0  0  0  0  0
    5.1700   -5.1250   22.4220 N   0  0  0  0  0
    7.9490   -1.5120   21.8840 N   0  0  0  0  0
    6.6660   -2.2080   21.8150 C   0  0  0  0  0
    6.7780   -3.6210   21.2370 C   0  0  0  0  0
    5.8240   -1.2920   20.9190 C   0  0  0  0  0
    5.1140   -0.2850   21.8640 C   0  0  0  0  0
    4.5450    0.8600   20.9850 C   0  0  0  0  0
    5.4160   -4.3230   21.2390 C   0  0  0  0  0
    3.9430   -5.8740   22.6420 C   0  0  0  0  0
    3.5430   -6.0310   24.1140 C   0  0  0  0  0
    2.8630   -4.9750   23.2390 C   0  0  0  0  0
    7.6640   -4.3490   22.0280 O   0  0  0  0  0
    4.6320   -4.2360   20.3290 O   0  0  0  0  0
   12.0668   11.2078   28.8005 H   0  0  0  0  0
   12.8420    9.4087   30.3840 H   0  0  0  0  0
   12.3408    6.5037   27.4893 H   0  0  0  0  0
   11.4407    6.0105   26.0844 H   0  0  0  0  0
   10.1611    6.7609   23.5121 H   0  0  0  0  0
   11.4550    5.1298   22.2111 H   0  0  0  0  0
   13.3903    7.2045   23.4782 H   0  0  0  0  0
   12.2867    7.4868   22.0877 H   0  0  0  0  0
   14.5992    6.9299   21.2758 H   0  0  0  0  0
   13.4439    5.6563   20.7767 H   0  0  0  0  0
   15.3628    5.5610   23.2211 H   0  0  0  0  0
   15.5539    4.6360   21.7068 H   0  0  0  0  0
   14.5907    3.2699   23.6604 H   0  0  0  0  0
   13.5944    3.2618   22.1773 H   0  0  0  0  0
   12.0447    3.5526   23.9983 H   0  0  0  0  0
   13.0771    4.7735   24.8003 H   0  0  0  0  0
    8.9862    4.6151   22.6950 H   0  0  0  0  0
    8.6486    2.9265   25.2207 H   0  0  0  0  0
    5.2739    4.0541   22.7793 H   0  0  0  0  0
    6.5767    3.1725   21.9553 H   0  0  0  0  0
    6.8293    4.8643   22.4867 H   0  0  0  0  0
    5.4470    4.6680   25.2585 H   0  0  0  0  0
    7.0282    5.4439   24.9551 H   0  0  0  0  0
    6.8744    4.1857   26.2182 H   0  0  0  0  0
    5.0374    2.1448   24.4502 H   0  0  0  0  0
    6.3497    1.7865   25.6116 H   0  0  0  0  0
    6.4688    1.2012   23.9407 H   0  0  0  0  0
   10.1266   -0.2100   22.3240 H   0  0  0  0  0
   10.5641   -2.2145   24.4092 H   0  0  0  0  0
   10.7344   -0.9120   26.4202 H   0  0  0  0  0
   12.1380   -0.9469   22.2778 H   0  0  0  0  0
   12.8326   -1.9852   23.5481 H   0  0  0  0  0
   12.7805    0.9325   23.3243 H   0  0  0  0  0
   14.0701   -0.1373   23.9352 H   0  0  0  0  0
    9.4572    1.3773   26.0830 H   0  0  0  0  0
   13.0288   -0.3352   26.0389 H   0  0  0  0  0
   12.4670    1.2985   25.6058 H   0  0  0  0  0
    5.9382   -5.1335   23.1122 H   0  0  0  0  0
    8.4764   -1.2605   21.0365 H   0  0  0  0  0
    6.1789   -2.2966   22.8127 H   0  0  0  0  0
    7.1604   -3.5601   20.1929 H   0  0  0  0  0
    5.0458   -1.8589   20.3639 H   0  0  0  0  0
    6.4464   -0.7753   20.1544 H   0  0  0  0  0
    5.8433    0.1337   22.5821 H   0  0  0  0  0
    4.2993   -0.7794   22.4409 H   0  0  0  0  0
    4.0177    1.6169   21.6080 H   0  0  0  0  0
    3.8120    0.4793   20.2390 H   0  0  0  0  0
    5.3479    1.3935   20.4288 H   0  0  0  0  0
    3.6238   -6.6513   21.9522 H   0  0  0  0  0
    4.2485   -5.6504   24.8473 H   0  0  0  0  0
    2.9432   -6.9071   24.3449 H   0  0  0  0  0
    1.8445   -5.2011   22.9355 H   0  0  0  0  0
    3.1470   -3.9456   23.4409 H   0  0  0  0  0
    7.9431   -5.1214   21.5529 H   0  0  0  0  0
  1  4  1  0  0  0
  1  5  2  0  0  0
  1  7  1  0  0  0
  2  3  1  0  0  0
  2  7  2  0  0  0
  2 50  1  0  0  0
  3  8  2  0  0  0
  3 51  1  0  0  0
  4  6  2  0  0  0
  4  9  1  0  0  0
  5  8  1  0  0  0
  5 52  1  0  0  0
  9 10  1  0  0  0
  9 53  1  0  0  0
 10 11  1  0  0  0
 10 13  1  0  0  0
 10 54  1  0  0  0
 11 12  2  0  0  0
 11 19  1  0  0  0
 13 14  1  0  0  0
 13 18  1  0  0  0
 13 55  1  0  0  0
 14 15  1  0  0  0
 14 56  1  0  0  0
 14 57  1  0  0  0
 15 16  1  0  0  0
 15 58  1  0  0  0
 15 59  1  0  0  0
 16 17  1  0  0  0
 16 60  1  0  0  0
 16 61  1  0  0  0
 17 18  1  0  0  0
 17 62  1  0  0  0
 17 63  1  0  0  0
 18 64  1  0  0  0
 18 65  1  0  0  0
 19 20  1  0  0  0
 19 66  1  0  0  0
 20 21  1  0  0  0
 20 25  1  0  0  0
 20 67  1  0  0  0
 21 22  1  0  0  0
 21 23  1  0  0  0
 21 24  1  0  0  0
 22 68  1  0  0  0
 22 69  1  0  0  0
 22 70  1  0  0  0
 23 71  1  0  0  0
 23 72  1  0  0  0
 23 73  1  0  0  0
 24 74  1  0  0  0
 24 75  1  0  0  0
 24 76  1  0  0  0
 25 26  2  0  0  0
 25 28  1  0  0  0
 27 29  2  0  0  0
 27 30  1  0  0  0
 27 38  1  0  0  0
 28 30  1  0  0  0
 28 35  2  0  0  0
 30 31  1  0  0  0
 30 77  1  0  0  0
 31 32  1  0  0  0
 31 33  1  0  0  0
 31 78  1  0  0  0
 32 35  1  0  0  0
 32 36  1  0  0  0
 32 79  1  0  0  0
 33 34  1  0  0  0
 33 80  1  0  0  0
 33 81  1  0  0  0
 34 36  1  0  0  0
 34 82  1  0  0  0
 34 83  1  0  0  0
 35 84  1  0  0  0
 36 85  1  0  0  0
 36 86  1  0  0  0
 37 44  1  0  0  0
 37 45  1  0  0  0
 37 87  1  0  0  0
 38 39  1  0  0  0
 38 88  1  0  0  0
 39 40  1  0  0  0
 39 41  1  0  0  0
 39 89  1  0  0  0
 40 44  1  0  0  0
 40 48  1  0  0  0
 40 90  1  0  0  0
 41 42  1  0  0  0
 41 91  1  0  0  0
 41 92  1  0  0  0
 42 43  1  0  0  0
 42 93  1  0  0  0
 42 94  1  0  0  0
 43 95  1  0  0  0
 43 96  1  0  0  0
 43 97  1  0  0  0
 44 49  2  0  0  0
 45 46  1  0  0  0
 45 47  1  0  0  0
 45 98  1  0  0  0
 46 47  1  0  0  0
 46 99  1  0  0  0
 46100  1  0  0  0
 47101  1  0  0  0
 47102  1  0  0  0
 48103  1  0  0  0
M  END
$$$$
