DMS_2_A_404
  -ISIS-            3D

 10  9  0  0  0  0  0  0  0  0  1 V2000
   -2.3860  -18.8080   -8.0130 S   0  0  0  0  0
   -2.1540  -20.2420   -7.6350 O   0  0  0  0  0
   -3.8670  -18.6820   -9.0590 C   0  0  0  0  0
   -1.1330  -18.2940   -9.2280 C   0  0  0  0  0
   -3.9944  -17.6335   -9.3977 H   0  0  0  0  0
   -4.7564  -18.9861   -8.4701 H   0  0  0  0  0
   -3.7641  -19.3489   -9.9395 H   0  0  0  0  0
   -1.3435  -17.2577   -9.5627 H   0  0  0  0  0
   -1.1511  -18.9791  -10.1003 H   0  0  0  0  0
   -0.1305  -18.3284   -8.7547 H   0  0  0  0  0
  1  2  2  0  0  0
  1  3  1  0  0  0
  1  4  1  0  0  0
  3  5  1  0  0  0
  3  6  1  0  0  0
  3  7  1  0  0  0
  4  8  1  0  0  0
  4  9  1  0  0  0
  4 10  1  0  0  0
M  END
$$$$
