DMS_1_A_407
  -ISIS-            3D

 10  9  0  0  0  0  0  0  0  0  1 V2000
    6.2090    0.3720   18.2180 S   0  0  0  0  0
    7.4080    1.1080   17.7170 O   0  0  0  0  0
    5.0150    1.5610   18.8960 C   0  0  0  0  0
    6.6300   -0.5040   19.7520 C   0  0  0  0  0
    4.1561    1.0150   19.3370 H   0  0  0  0  0
    4.6497    2.2171   18.0797 H   0  0  0  0  0
    5.5023    2.1820   19.6754 H   0  0  0  0  0
    5.7212   -0.9870   20.1657 H   0  0  0  0  0
    7.0432    0.2105   20.4931 H   0  0  0  0  0
    7.3884   -1.2827   19.5312 H   0  0  0  0  0
  1  2  2  0  0  0
  1  3  1  0  0  0
  1  4  1  0  0  0
  3  5  1  0  0  0
  3  6  1  0  0  0
  3  7  1  0  0  0
  4  8  1  0  0  0
  4  9  1  0  0  0
  4 10  1  0  0  0
M  END
$$$$
