DMS_2_A_501
  -ISIS-            3D

 10  9  0  0  0  0  0  0  0  0  1 V2000
   -6.8250  -28.3440  -21.4750 S   0  0  0  0  0
   -7.6440  -27.3770  -22.2700 O   0  0  0  0  0
   -6.0460  -27.4830  -20.0800 C   0  0  0  0  0
   -5.3420  -28.8110  -22.4110 C   0  0  0  0  0
   -5.3904  -28.1873  -19.5283 H   0  0  0  0  0
   -6.8349  -27.1074  -19.3968 H   0  0  0  0  0
   -5.4454  -26.6280  -20.4528 H   0  0  0  0  0
   -4.7070  -29.4776  -21.7924 H   0  0  0  0  0
   -4.7697  -27.9020  -22.6884 H   0  0  0  0  0
   -5.6465  -29.3486  -23.3322 H   0  0  0  0  0
  1  2  2  0  0  0
  1  3  1  0  0  0
  1  4  1  0  0  0
  3  5  1  0  0  0
  3  6  1  0  0  0
  3  7  1  0  0  0
  4  8  1  0  0  0
  4  9  1  0  0  0
  4 10  1  0  0  0
M  END
$$$$
