DMS_1_A_402
  -ISIS-            3D

 10  9  0  0  0  0  0  0  0  0  1 V2000
    6.1310   -0.9640   -6.2850 S   0  0  0  0  0
    7.1390   -0.8650   -7.3680 O   0  0  0  0  0
    7.0690   -0.8460   -4.7630 C   0  0  0  0  0
    5.6800   -2.6640   -6.1670 C   0  0  0  0  0
    6.4062   -1.0511   -3.8975 H   0  0  0  0  0
    7.4801    0.1797   -4.6654 H   0  0  0  0  0
    7.9065   -1.5735   -4.7687 H   0  0  0  0  0
    5.0449   -2.8243   -5.2718 H   0  0  0  0  0
    6.5850   -3.3016   -6.0956 H   0  0  0  0  0
    5.1045   -2.9550   -7.0696 H   0  0  0  0  0
  1  2  2  0  0  0
  1  3  1  0  0  0
  1  4  1  0  0  0
  3  5  1  0  0  0
  3  6  1  0  0  0
  3  7  1  0  0  0
  4  8  1  0  0  0
  4  9  1  0  0  0
  4 10  1  0  0  0
M  END
$$$$
