DMS_1_A_403
  -ISIS-            3D

 10  9  0  0  0  0  0  0  0  0  1 V2000
  -16.8090   33.0640   54.3090 S   0  0  0  0  0
  -17.6510   32.8080   53.1080 O   0  0  0  0  0
  -15.3420   31.9980   54.2270 C   0  0  0  0  0
  -17.6830   32.4120   55.7650 C   0  0  0  0  0
  -14.7434   32.1217   55.1525 H   0  0  0  0  0
  -14.7268   32.2884   53.3509 H   0  0  0  0  0
  -15.6537   30.9384   54.1243 H   0  0  0  0  0
  -17.0415   32.5268   56.6625 H   0  0  0  0  0
  -17.9192   31.3391   55.6110 H   0  0  0  0  0
  -18.6242   32.9802   55.9117 H   0  0  0  0  0
  1  2  2  0  0  0
  1  3  1  0  0  0
  1  4  1  0  0  0
  3  5  1  0  0  0
  3  6  1  0  0  0
  3  7  1  0  0  0
  4  8  1  0  0  0
  4  9  1  0  0  0
  4 10  1  0  0  0
M  END
$$$$
