DMS_2_A_403
  -ISIS-            3D

 10  9  0  0  0  0  0  0  0  0  1 V2000
  -26.6420   33.0640   39.3840 S   0  0  0  0  0
  -25.8000   32.8080   40.5850 O   0  0  0  0  0
  -28.1090   31.9980   39.4660 C   0  0  0  0  0
  -25.7680   32.4120   37.9280 C   0  0  0  0  0
  -28.7076   32.1217   38.5405 H   0  0  0  0  0
  -28.7242   32.2884   40.3421 H   0  0  0  0  0
  -27.7973   30.9384   39.5687 H   0  0  0  0  0
  -26.4095   32.5268   37.0305 H   0  0  0  0  0
  -25.5318   31.3391   38.0820 H   0  0  0  0  0
  -24.8268   32.9802   37.7813 H   0  0  0  0  0
  1  2  2  0  0  0
  1  3  1  0  0  0
  1  4  1  0  0  0
  3  5  1  0  0  0
  3  6  1  0  0  0
  3  7  1  0  0  0
  4  8  1  0  0  0
  4  9  1  0  0  0
  4 10  1  0  0  0
M  END
$$$$
