DMS_2_A_402
  -ISIS-            3D

 10  9  0  0  0  0  0  0  0  0  1 V2000
   -6.2560   -0.9790    6.4260 S   0  0  0  0  0
   -7.3350   -1.1310    7.4420 O   0  0  0  0  0
   -7.0770   -0.9670    4.8370 C   0  0  0  0  0
   -5.4910   -2.5700    6.2870 C   0  0  0  0  0
   -6.3226   -1.0046    4.0245 H   0  0  0  0  0
   -7.6658   -0.0323    4.7369 H   0  0  0  0  0
   -7.7602   -1.8363    4.7491 H   0  0  0  0  0
   -4.7743   -2.5706    5.4402 H   0  0  0  0  0
   -6.2567   -3.3554    6.1231 H   0  0  0  0  0
   -4.9387   -2.7945    7.2224 H   0  0  0  0  0
  1  2  2  0  0  0
  1  3  1  0  0  0
  1  4  1  0  0  0
  3  5  1  0  0  0
  3  6  1  0  0  0
  3  7  1  0  0  0
  4  8  1  0  0  0
  4  9  1  0  0  0
  4 10  1  0  0  0
M  END
$$$$
