EDO_1_A_406
  -ISIS-            3D

 10  9  0  0  0  0  0  0  0  0  1 V2000
  -10.4630  -15.6780   25.6840 C   0  0  0  0  0
  -11.7650  -16.2230   25.9760 O   0  0  0  0  0
   -9.4090  -16.7530   25.9470 C   0  0  0  0  0
   -8.1920  -16.1880   26.4660 O   0  0  0  0  0
  -10.2872  -14.7999   26.3410 H   0  0  0  0  0
  -10.4188  -15.3265   24.6322 H   0  0  0  0  0
  -12.4050  -15.5342   25.8551 H   0  0  0  0  0
   -9.1947  -17.3187   25.0160 H   0  0  0  0  0
   -9.7958  -17.4847   26.6885 H   0  0  0  0  0
   -7.5941  -16.8991   26.6547 H   0  0  0  0  0
  1  2  1  0  0  0
  1  3  1  0  0  0
  1  5  1  0  0  0
  1  6  1  0  0  0
  2  7  1  0  0  0
  3  4  1  0  0  0
  3  8  1  0  0  0
  3  9  1  0  0  0
  4 10  1  0  0  0
M  END
$$$$
