EDO_1_A_402
  -ISIS-            3D

 10  9  0  0  0  0  0  0  0  0  1 V2000
    5.0630  -12.0360   16.0770 C   0  0  0  0  0
    4.8140  -10.6210   16.1100 O   0  0  0  0  0
    3.8840  -12.7440   15.4140 C   0  0  0  0  0
    2.7250  -12.6310   16.2480 O   0  0  0  0  0
    5.2083  -12.4044   17.1134 H   0  0  0  0  0
    6.0037  -12.2407   15.5235 H   0  0  0  0  0
    5.1537  -10.2364   15.3131 H   0  0  0  0  0
    4.1131  -13.8199   15.2692 H   0  0  0  0  0
    3.6704  -12.3158   14.4127 H   0  0  0  0  0
    2.6578  -11.7161   16.4965 H   0  0  0  0  0
  1  2  1  0  0  0
  1  3  1  0  0  0
  1  5  1  0  0  0
  1  6  1  0  0  0
  2  7  1  0  0  0
  3  4  1  0  0  0
  3  8  1  0  0  0
  3  9  1  0  0  0
  4 10  1  0  0  0
M  END
$$$$
