DMS_1_A_1004
  -ISIS-            3D

 10  9  0  0  0  0  0  0  0  0  1 V2000
    2.4840  -18.8440    8.0800 S   0  0  0  0  0
    3.7810  -18.8510    8.8650 O   0  0  0  0  0
    1.2570  -18.1600    9.1720 C   0  0  0  0  0
    1.8970  -20.5180    8.0970 C   0  0  0  0  0
    0.2498  -18.2626    8.7181 H   0  0  0  0  0
    1.4694  -17.0826    9.3317 H   0  0  0  0  0
    1.2768  -18.6805   10.1510 H   0  0  0  0  0
    0.8741  -20.5631    7.6698 H   0  0  0  0  0
    1.8828  -20.9133    9.1329 H   0  0  0  0  0
    2.5702  -21.1483    7.4798 H   0  0  0  0  0
  1  2  2  0  0  0
  1  3  1  0  0  0
  1  4  1  0  0  0
  3  5  1  0  0  0
  3  6  1  0  0  0
  3  7  1  0  0  0
  4  8  1  0  0  0
  4  9  1  0  0  0
  4 10  1  0  0  0
M  END
$$$$
