DMS_1_A_1002
  -ISIS-            3D

 10  9  0  0  0  0  0  0  0  0  1 V2000
    6.6260  -27.8740   22.2300 S   0  0  0  0  0
    7.4860  -26.9490   22.9300 O   0  0  0  0  0
    5.3340  -28.1800   23.3660 C   0  0  0  0  0
    5.7410  -26.8680   21.0680 C   0  0  0  0  0
    4.5226  -28.7502   22.8693 H   0  0  0  0  0
    4.9230  -27.2269   23.7585 H   0  0  0  0  0
    5.7212  -28.7807   24.2145 H   0  0  0  0  0
    4.9272  -27.4605   20.6022 H   0  0  0  0  0
    6.4353  -26.5273   20.2726 H   0  0  0  0  0
    5.3070  -25.9805   21.5733 H   0  0  0  0  0
  1  2  2  0  0  0
  1  3  1  0  0  0
  1  4  1  0  0  0
  3  5  1  0  0  0
  3  6  1  0  0  0
  3  7  1  0  0  0
  4  8  1  0  0  0
  4  9  1  0  0  0
  4 10  1  0  0  0
M  END
$$$$
