DMS_1_A_402
  -ISIS-            3D

 10  9  0  0  0  0  0  0  0  0  1 V2000
    9.1640    0.2050    1.8260 S   0  0  0  0  0
    8.5470    1.5350    1.9820 O   0  0  0  0  0
   10.4640    0.5720    0.7420 C   0  0  0  0  0
    8.1970   -0.6580    0.6380 C   0  0  0  0  0
   10.9439   -0.3642    0.3901 H   0  0  0  0  0
   11.2286    1.1751    1.2736 H   0  0  0  0  0
   10.1053    1.1497   -0.1348 H   0  0  0  0  0
    8.7318   -1.5693    0.3003 H   0  0  0  0  0
    7.9766   -0.0132   -0.2374 H   0  0  0  0  0
    7.2376   -0.9649    1.1027 H   0  0  0  0  0
  1  2  2  0  0  0
  1  3  1  0  0  0
  1  4  1  0  0  0
  3  5  1  0  0  0
  3  6  1  0  0  0
  3  7  1  0  0  0
  4  8  1  0  0  0
  4  9  1  0  0  0
  4 10  1  0  0  0
M  END
$$$$
