EDO_1_A_504
  -ISIS-            3D

 10  9  0  0  0  0  0  0  0  0  1 V2000
  -17.2910   75.8620   52.6480 C   0  0  0  0  0
  -18.6260   75.9010   53.1490 O   0  0  0  0  0
  -17.1160   75.0160   51.4330 C   0  0  0  0  0
  -17.9700   73.8620   51.4220 O   0  0  0  0  0
  -16.6515   75.4536   53.4596 H   0  0  0  0  0
  -16.9229   76.8942   52.4659 H   0  0  0  0  0
  -19.0965   76.5879   52.6949 H   0  0  0  0  0
  -16.0612   74.6889   51.3252 H   0  0  0  0  0
  -17.3505   75.6166   50.5283 H   0  0  0  0  0
  -18.6841   74.0437   52.0229 H   0  0  0  0  0
  1  2  1  0  0  0
  1  3  1  0  0  0
  1  5  1  0  0  0
  1  6  1  0  0  0
  2  7  1  0  0  0
  3  4  1  0  0  0
  3  8  1  0  0  0
  3  9  1  0  0  0
  4 10  1  0  0  0
M  END
$$$$
