EDO_1_A_205
  -ISIS-            3D

 10  9  0  0  0  0  0  0  0  0  1 V2000
   44.7390   64.1310   -2.3170 C   0  0  0  0  0
   43.3470   64.1820   -2.5680 O   0  0  0  0  0
   45.0570   63.4350   -1.0540 C   0  0  0  0  0
   44.1290   62.4150   -0.7410 O   0  0  0  0  0
   45.1507   65.1613   -2.3223 H   0  0  0  0  0
   45.2184   63.5998   -3.1671 H   0  0  0  0  0
   42.9767   63.3740   -2.2306 H   0  0  0  0  0
   45.0535   64.1721   -0.2216 H   0  0  0  0  0
   46.0828   63.0104   -1.0924 H   0  0  0  0  0
   44.3777   62.0245    0.0861 H   0  0  0  0  0
  1  2  1  0  0  0
  1  3  1  0  0  0
  1  5  1  0  0  0
  1  6  1  0  0  0
  2  7  1  0  0  0
  3  4  1  0  0  0
  3  8  1  0  0  0
  3  9  1  0  0  0
  4 10  1  0  0  0
M  END
$$$$
