EDO_1_A_207
  -ISIS-            3D

 10  9  0  0  0  0  0  0  0  0  1 V2000
   33.5030   56.6390   20.5640 C   0  0  0  0  0
   34.2630   56.5270   19.3840 O   0  0  0  0  0
   34.1510   57.5090   21.5540 C   0  0  0  0  0
   34.6160   56.8030   22.6710 O   0  0  0  0  0
   33.3386   55.6203   20.9719 H   0  0  0  0  0
   32.4936   57.0259   20.3060 H   0  0  0  0  0
   34.1978   57.3367   18.8944 H   0  0  0  0  0
   33.4450   58.2958   21.8972 H   0  0  0  0  0
   35.0074   58.0545   21.1062 H   0  0  0  0  0
   33.8756   56.5258   23.1950 H   0  0  0  0  0
  1  2  1  0  0  0
  1  3  1  0  0  0
  1  5  1  0  0  0
  1  6  1  0  0  0
  2  7  1  0  0  0
  3  4  1  0  0  0
  3  8  1  0  0  0
  3  9  1  0  0  0
  4 10  1  0  0  0
M  END
$$$$
