DMS_1_A_502
  -ISIS-            3D

 10  9  0  0  0  0  0  0  0  0  1 V2000
    6.4950    0.0960   18.0770 S   0  0  0  0  0
    7.4940    0.9490   17.3620 O   0  0  0  0  0
    5.1870    1.1470   18.7600 C   0  0  0  0  0
    7.2190   -0.5490   19.6110 C   0  0  0  0  0
    4.4770    0.5250   19.3424 H   0  0  0  0  0
    4.6431    1.6405   17.9288 H   0  0  0  0  0
    5.6314    1.9209   19.4189 H   0  0  0  0  0
    6.4534   -1.1261   20.1687 H   0  0  0  0  0
    7.5825    0.2911   20.2377 H   0  0  0  0  0
    8.0694   -1.2160   19.3613 H   0  0  0  0  0
  1  2  2  0  0  0
  1  3  1  0  0  0
  1  4  1  0  0  0
  3  5  1  0  0  0
  3  6  1  0  0  0
  3  7  1  0  0  0
  4  8  1  0  0  0
  4  9  1  0  0  0
  4 10  1  0  0  0
M  END
$$$$
