DMS_1_B_406
  -ISIS-            3D

 10  9  0  0  0  0  0  0  0  0  1 V2000
   -9.9930   20.5800   22.0670 S   0  0  0  0  0
  -10.9010   19.6650   21.3050 O   0  0  0  0  0
   -8.4210   20.5440   21.1790 C   0  0  0  0  0
   -9.4570   19.7390   23.5860 C   0  0  0  0  0
   -7.6595   21.1164   21.7470 H   0  0  0  0  0
   -8.5542   21.0098   20.1811 H   0  0  0  0  0
   -8.0795   19.4963   21.0508 H   0  0  0  0  0
   -8.6761   20.3442   24.0901 H   0  0  0  0  0
   -9.0522   18.7355   23.3413 H   0  0  0  0  0
  -10.3264   19.6273   24.2658 H   0  0  0  0  0
  1  2  2  0  0  0
  1  3  1  0  0  0
  1  4  1  0  0  0
  3  5  1  0  0  0
  3  6  1  0  0  0
  3  7  1  0  0  0
  4  8  1  0  0  0
  4  9  1  0  0  0
  4 10  1  0  0  0
M  END
$$$$
