DMS_1_B_403
  -ISIS-            3D

 10  9  0  0  0  0  0  0  0  0  1 V2000
  -12.4150   -0.2740   -7.9250 S   0  0  0  0  0
  -10.9470   -0.1920   -8.1640 O   0  0  0  0  0
  -13.0410   -1.7200   -8.8320 C   0  0  0  0  0
  -13.3060    1.1240   -8.7020 C   0  0  0  0  0
  -14.1389   -1.7950   -8.6933 H   0  0  0  0  0
  -12.5577   -2.6373   -8.4379 H   0  0  0  0  0
  -12.8087   -1.6136   -9.9115 H   0  0  0  0  0
  -14.3972    0.9928   -8.5532 H   0  0  0  0  0
  -13.0773    1.1539   -9.7870 H   0  0  0  0  0
  -12.9802    2.0723   -8.2278 H   0  0  0  0  0
  1  2  2  0  0  0
  1  3  1  0  0  0
  1  4  1  0  0  0
  3  5  1  0  0  0
  3  6  1  0  0  0
  3  7  1  0  0  0
  4  8  1  0  0  0
  4  9  1  0  0  0
  4 10  1  0  0  0
M  END
$$$$
