DMS_1_A_403
  -ISIS-            3D

 10  9  0  0  0  0  0  0  0  0  1 V2000
  -19.0020    6.5550   35.3510 S   0  0  0  0  0
  -18.2390    6.4970   34.0620 O   0  0  0  0  0
  -20.6550    7.2030   35.0340 C   0  0  0  0  0
  -18.3460    7.9040   36.4030 C   0  0  0  0  0
  -21.2025    7.3113   35.9925 H   0  0  0  0  0
  -21.2053    6.4978   34.3782 H   0  0  0  0  0
  -20.5841    8.1900   34.5327 H   0  0  0  0  0
  -18.9606    7.9884   37.3225 H   0  0  0  0  0
  -18.3739    8.8621   35.8447 H   0  0  0  0  0
  -17.2983    7.6705   36.6823 H   0  0  0  0  0
  1  2  2  0  0  0
  1  3  1  0  0  0
  1  4  1  0  0  0
  3  5  1  0  0  0
  3  6  1  0  0  0
  3  7  1  0  0  0
  4  8  1  0  0  0
  4  9  1  0  0  0
  4 10  1  0  0  0
M  END
$$$$
