DMS_1_A_402
  -ISIS-            3D

 10  9  0  0  0  0  0  0  0  0  1 V2000
  -22.0070   -8.3050    9.0240 S   0  0  0  0  0
  -20.9900   -9.1960    9.6880 O   0  0  0  0  0
  -22.7550   -9.1950    7.6250 C   0  0  0  0  0
  -21.1330   -6.9880    8.1230 C   0  0  0  0  0
  -23.4456   -8.5181    7.0817 H   0  0  0  0  0
  -23.3241  -10.0660    8.0095 H   0  0  0  0  0
  -21.9607   -9.5494    6.9364 H   0  0  0  0  0
  -21.8667   -6.3707    7.5654 H   0  0  0  0  0
  -20.4061   -7.4352    7.4143 H   0  0  0  0  0
  -20.5924   -6.3467    8.8488 H   0  0  0  0  0
  1  2  2  0  0  0
  1  3  1  0  0  0
  1  4  1  0  0  0
  3  5  1  0  0  0
  3  6  1  0  0  0
  3  7  1  0  0  0
  4  8  1  0  0  0
  4  9  1  0  0  0
  4 10  1  0  0  0
M  END
$$$$
