EDO_1_A_404
  -ISIS-            3D

 10  9  0  0  0  0  0  0  0  0  1 V2000
   11.7060  -14.3330   -7.8710 C   0  0  0  0  0
   12.1850  -13.1120   -7.3100 O   0  0  0  0  0
   10.1800  -14.3100   -7.7990 C   0  0  0  0  0
    9.6770  -15.5810   -8.2170 O   0  0  0  0  0
   12.1264  -15.1974   -7.3148 H   0  0  0  0  0
   12.0482  -14.4115   -8.9234 H   0  0  0  0  0
   12.2551  -13.2137   -6.3699 H   0  0  0  0  0
    9.7711  -13.5223   -8.4650 H   0  0  0  0  0
    9.8285  -14.0887   -6.7689 H   0  0  0  0  0
    9.7066  -16.1780   -7.4807 H   0  0  0  0  0
  1  2  1  0  0  0
  1  3  1  0  0  0
  1  5  1  0  0  0
  1  6  1  0  0  0
  2  7  1  0  0  0
  3  4  1  0  0  0
  3  8  1  0  0  0
  3  9  1  0  0  0
  4 10  1  0  0  0
M  END
$$$$
