EDO_1_A_402
  -ISIS-            3D

 10  9  0  0  0  0  0  0  0  0  1 V2000
   23.6970   -3.3200   -9.8470 C   0  0  0  0  0
   25.0580   -2.8700   -9.8080 O   0  0  0  0  0
   23.6910   -4.6630  -10.5690 C   0  0  0  0  0
   22.5240   -5.4190  -10.2320 O   0  0  0  0  0
   23.0557   -2.5810  -10.3710 H   0  0  0  0  0
   23.3216   -3.4286   -8.8077 H   0  0  0  0  0
   25.0741   -2.0102   -9.4088 H   0  0  0  0  0
   24.5932   -5.2552  -10.3044 H   0  0  0  0  0
   23.7194   -4.5097  -11.6676 H   0  0  0  0  0
   22.6853   -5.8694   -9.4133 H   0  0  0  0  0
  1  2  1  0  0  0
  1  3  1  0  0  0
  1  5  1  0  0  0
  1  6  1  0  0  0
  2  7  1  0  0  0
  3  4  1  0  0  0
  3  8  1  0  0  0
  3  9  1  0  0  0
  4 10  1  0  0  0
M  END
$$$$
