EDO_1_B_402
  -ISIS-            3D

 10  9  0  0  0  0  0  0  0  0  1 V2000
  -12.6580  -11.9160   -5.9470 C   0  0  0  0  0
  -13.4690  -12.7190   -5.1620 O   0  0  0  0  0
  -13.1470  -10.5590   -5.9250 C   0  0  0  0  0
  -12.6060   -9.7910   -6.8780 O   0  0  0  0  0
  -12.6780  -12.3188   -6.9819 H   0  0  0  0  0
  -11.6037  -11.9812   -5.6030 H   0  0  0  0  0
  -13.2610  -12.5789   -4.2468 H   0  0  0  0  0
  -12.9831  -10.0933   -4.9291 H   0  0  0  0  0
  -14.2472  -10.5553   -6.0811 H   0  0  0  0  0
  -11.6973   -9.6137   -6.6729 H   0  0  0  0  0
  1  2  1  0  0  0
  1  3  1  0  0  0
  1  5  1  0  0  0
  1  6  1  0  0  0
  2  7  1  0  0  0
  3  4  1  0  0  0
  3  8  1  0  0  0
  3  9  1  0  0  0
  4 10  1  0  0  0
M  END
$$$$
