EDO_1_B_403
  -ISIS-            3D

 10  9  0  0  0  0  0  0  0  0  1 V2000
   -4.9600    2.4940   12.2410 C   0  0  0  0  0
   -3.5830    2.8580   12.2310 O   0  0  0  0  0
   -5.1370    1.1890   13.0080 C   0  0  0  0  0
   -6.3650    0.5950   12.5560 O   0  0  0  0  0
   -5.3027    2.3715   11.1912 H   0  0  0  0  0
   -5.5671    3.3031   12.6987 H   0  0  0  0  0
   -3.4919    3.6586   11.7313 H   0  0  0  0  0
   -5.1704    1.3674   14.1029 H   0  0  0  0  0
   -4.2975    0.4934   12.7959 H   0  0  0  0  0
   -6.4712   -0.2345   13.0025 H   0  0  0  0  0
  1  2  1  0  0  0
  1  3  1  0  0  0
  1  5  1  0  0  0
  1  6  1  0  0  0
  2  7  1  0  0  0
  3  4  1  0  0  0
  3  8  1  0  0  0
  3  9  1  0  0  0
  4 10  1  0  0  0
M  END
$$$$
