EDO_1_A_406
  -ISIS-            3D

 10  9  0  0  0  0  0  0  0  0  1 V2000
   10.2830   -1.6740  -41.6840 C   0  0  0  0  0
    9.9890   -3.0530  -41.9300 O   0  0  0  0  0
   10.6410   -1.5410  -40.2100 C   0  0  0  0  0
   10.1410   -0.3270  -39.6470 O   0  0  0  0  0
    9.3999   -1.0536  -41.9453 H   0  0  0  0  0
   11.1230   -1.3488  -42.3310 H   0  0  0  0  0
    9.0917   -3.2190  -41.6729 H   0  0  0  0  0
   11.7397   -1.6069  -40.0630 H   0  0  0  0  0
   10.2001   -2.3781  -39.6291 H   0  0  0  0  0
   10.7145    0.3820  -39.9078 H   0  0  0  0  0
  1  2  1  0  0  0
  1  3  1  0  0  0
  1  5  1  0  0  0
  1  6  1  0  0  0
  2  7  1  0  0  0
  3  4  1  0  0  0
  3  8  1  0  0  0
  3  9  1  0  0  0
  4 10  1  0  0  0
M  END
$$$$
