DMS_1_A_402
  -ISIS-            3D

 10  9  0  0  0  0  0  0  0  0  1 V2000
    6.9520  -28.1490   21.5070 S   0  0  0  0  0
    7.7810  -27.2280   22.3250 O   0  0  0  0  0
    5.9490  -27.2110   20.3600 C   0  0  0  0  0
    5.6390  -28.8390   22.5640 C   0  0  0  0  0
    5.2730  -27.8958   19.8083 H   0  0  0  0  0
    6.6092  -26.6921   19.6353 H   0  0  0  0  0
    5.3471  -26.4581   20.9092 H   0  0  0  0  0
    4.9684  -29.4776   21.9534 H   0  0  0  0  0
    5.0543  -28.0164   23.0246 H   0  0  0  0  0
    6.1006  -29.4541   23.3633 H   0  0  0  0  0
  1  2  2  0  0  0
  1  3  1  0  0  0
  1  4  1  0  0  0
  3  5  1  0  0  0
  3  6  1  0  0  0
  3  7  1  0  0  0
  4  8  1  0  0  0
  4  9  1  0  0  0
  4 10  1  0  0  0
M  END
$$$$
