DMS_2_A_403
  -ISIS-            3D

 10  9  0  0  0  0  0  0  0  0  1 V2000
   -2.3540  -18.8370   -8.0270 S   0  0  0  0  0
   -3.6680  -18.7280   -8.8400 O   0  0  0  0  0
   -1.1000  -18.0980   -9.0440 C   0  0  0  0  0
   -1.8340  -20.5170   -8.2720 C   0  0  0  0  0
   -0.0977  -18.2986   -8.6134 H   0  0  0  0  0
   -1.2593  -17.0009   -9.0807 H   0  0  0  0  0
   -1.1476  -18.5024  -10.0759 H   0  0  0  0  0
   -0.8104  -20.6582   -7.8687 H   0  0  0  0  0
   -1.8453  -20.7749   -9.3510 H   0  0  0  0  0
   -2.5259  -21.1962   -7.7331 H   0  0  0  0  0
  1  2  2  0  0  0
  1  3  1  0  0  0
  1  4  1  0  0  0
  3  5  1  0  0  0
  3  6  1  0  0  0
  3  7  1  0  0  0
  4  8  1  0  0  0
  4  9  1  0  0  0
  4 10  1  0  0  0
M  END
$$$$
