APR_1_A_201
  -ISIS-            3D

 58 61  0  0  0  0  0  0  0  0  1 V2000
    6.0070   -8.6420  -16.0460 N   0  0  0  0  0
    5.6550   -7.3730  -15.8100 C   0  0  0  0  0
    5.6270   -6.3460  -16.6510 N   0  0  0  0  0
    6.0360   -6.7190  -17.8750 C   0  0  0  0  0
    6.4470   -7.9740  -18.2690 C   0  0  0  0  0
    6.4360   -8.9850  -17.2880 C   0  0  0  0  0
    6.7670  -10.2550  -17.5200 N   0  0  0  0  0
    6.7850   -7.9610  -19.6200 N   0  0  0  0  0
    6.5700   -6.7240  -20.0110 C   0  0  0  0  0
    6.1370   -5.9180  -18.9770 N   0  0  0  0  0
    5.7050   -4.5370  -19.0050 C   0  0  0  0  0
    6.2060   -3.6570  -20.1420 C   0  0  0  0  0
    7.4910   -3.1390  -19.8640 O   0  0  0  0  0
    5.1060   -2.5920  -20.1920 C   0  0  0  0  0
    5.3290   -1.5980  -19.2000 O   0  0  0  0  0
    4.3030   -4.5740  -19.1400 O   0  0  0  0  0
    3.8410   -3.3910  -19.8400 C   0  0  0  0  0
    2.9800   -3.8350  -20.9990 C   0  0  0  0  0
    3.8450   -4.2610  -22.0730 O   0  0  0  0  0
    3.3980   -5.3740  -23.1440 P   0  0  0  0  0
    3.2480   -6.6850  -22.4570 O   0  0  0  0  0
    4.3270   -5.2940  -24.3070 O   0  0  0  0  0
    1.9430   -4.8750  -23.5770 O   0  0  0  0  0
    1.3520   -3.8440  -24.6430 P   0  0  0  0  0
   -0.0890   -3.6240  -24.3370 O   0  0  0  0  0
    2.2610   -2.6730  -24.7420 O   0  0  0  0  0
    1.5160   -4.6730  -25.9960 O   0  0  0  0  0
    0.5780   -5.7220  -26.3270 C   0  0  0  0  0
    2.3630   -7.2190  -26.8470 O   0  0  0  0  0
    2.8390   -9.2940  -25.9640 O   0  0  0  0  0
    2.2560   -8.6240  -27.0190 C   0  0  0  0  0
    0.3910  -10.1190  -27.7240 O   0  0  0  0  0
    0.7510   -8.8890  -27.1300 C   0  0  0  0  0
    0.4730   -7.8800  -29.3370 O   0  0  0  0  0
    0.2780   -7.6910  -27.9400 C   0  0  0  0  0
    1.1890   -6.5790  -27.4050 C   0  0  0  0  0
    5.3282   -7.1541  -14.7789 H   0  0  0  0  0
    6.6920   -6.3254  -21.0252 H   0  0  0  0  0
    5.9590   -4.0560  -18.0350 H   0  0  0  0  0
    6.2287   -4.2125  -21.1000 H   0  0  0  0  0
    7.3679   -2.3451  -19.3552 H   0  0  0  0  0
    5.0455   -2.1240  -21.1966 H   0  0  0  0  0
    4.8311   -0.8239  -19.4252 H   0  0  0  0  0
    3.2059   -2.7994  -19.1458 H   0  0  0  0  0
    2.3579   -2.9885  -21.3581 H   0  0  0  0  0
    2.2908   -4.6469  -20.6865 H   0  0  0  0  0
   -0.3686   -5.2660  -26.6853 H   0  0  0  0  0
    0.3423   -6.3349  -25.4318 H   0  0  0  0  0
    3.7475   -9.0320  -25.9030 H   0  0  0  0  0
    2.7501   -8.9131  -27.9696 H   0  0  0  0  0
    0.7669  -10.8091  -27.1932 H   0  0  0  0  0
    0.2998   -8.8303  -26.1154 H   0  0  0  0  0
    0.2293   -8.7798  -29.5230 H   0  0  0  0  0
   -0.7920   -7.4717  -27.7437 H   0  0  0  0  0
    1.4965   -5.9242  -28.2485 H   0  0  0  0  0
    7.0727  -10.4723  -18.4777 H   0  0  0  0  0
    6.6846  -10.8945  -16.7198 H   0  0  0  0  0
    2.9551   -7.4814  -23.2065 H   0  0  0  0  0
  1  2  2  0  0  0
  1  6  1  0  0  0
  2  3  1  0  0  0
  2 37  1  0  0  0
  3  4  2  0  0  0
  4  5  1  0  0  0
  4 10  1  0  0  0
  5  6  2  0  0  0
  5  8  1  0  0  0
  6  7  1  0  0  0
  7 56  1  0  0  0
  7 57  1  0  0  0
  8  9  2  0  0  0
  9 10  1  0  0  0
  9 38  1  0  0  0
 10 11  1  0  0  0
 11 12  1  0  0  0
 11 16  1  0  0  0
 11 39  1  0  0  0
 12 13  1  0  0  0
 12 14  1  0  0  0
 12 40  1  0  0  0
 13 41  1  0  0  0
 14 15  1  0  0  0
 14 17  1  0  0  0
 14 42  1  0  0  0
 15 43  1  0  0  0
 16 17  1  0  0  0
 17 18  1  0  0  0
 17 44  1  0  0  0
 18 19  1  0  0  0
 18 45  1  0  0  0
 18 46  1  0  0  0
 19 20  1  0  0  0
 20 21  1  0  0  0
 20 22  2  0  0  0
 20 23  1  0  0  0
 23 24  1  0  0  0
 24 25  2  0  0  0
 24 26  2  0  0  0
 24 27  1  0  0  0
 27 28  1  0  0  0
 28 36  1  0  0  0
 28 47  1  0  0  0
 28 48  1  0  0  0
 29 31  1  0  0  0
 29 36  1  0  0  0
 30 31  1  0  0  0
 30 49  1  0  0  0
 31 33  1  0  0  0
 31 50  1  0  0  0
 32 33  1  0  0  0
 32 51  1  0  0  0
 33 35  1  0  0  0
 33 52  1  0  0  0
 34 35  1  0  0  0
 34 53  1  0  0  0
 35 36  1  0  0  0
 35 54  1  0  0  0
 36 55  1  0  0  0
 21 58  1  0  0  0
M  END
$$$$
