OHP_1_A_201
  -ISIS-            3D

 18 18  0  0  0  0  0  0  0  0  1 V2000
  -43.4070  -31.9090    2.4160 C   0  0  0  0  0
  -43.3910  -31.2560    1.0580 C   0  0  0  0  0
  -44.7580  -30.7960    0.6060 C   0  0  0  0  0
  -45.7330  -31.6960    0.3480 C   0  0  0  0  0
  -46.9770  -31.2750   -0.0830 C   0  0  0  0  0
  -47.2290  -29.9420   -0.2630 C   0  0  0  0  0
  -46.2320  -29.0270    0.0220 C   0  0  0  0  0
  -45.0000  -29.4580    0.4570 C   0  0  0  0  0
  -45.4540  -33.0600    0.4960 O   0  0  0  0  0
  -43.9390  -32.9990    2.4890 O   0  0  0  0  0
  -42.8960  -31.4220    3.3930 O   0  0  0  0  0
  -42.9759  -31.9658    0.3059 H   0  0  0  0  0
  -42.6834  -30.3962    1.0738 H   0  0  0  0  0
  -47.7736  -32.0077   -0.2978 H   0  0  0  0  0
  -48.2148  -29.5998   -0.6212 H   0  0  0  0  0
  -46.4256  -27.9478   -0.1038 H   0  0  0  0  0
  -44.2167  -28.7125    0.6767 H   0  0  0  0  0
  -46.2164  -33.6068    0.3730 H   0  0  0  0  0
  1  2  1  0  0  0
  1 10  2  0  0  0
  1 11  2  0  0  0
  2  3  1  0  0  0
  2 12  1  0  0  0
  2 13  1  0  0  0
  3  4  2  0  0  0
  3  8  1  0  0  0
  4  5  1  0  0  0
  4  9  1  0  0  0
  5  6  2  0  0  0
  5 14  1  0  0  0
  6  7  1  0  0  0
  6 15  1  0  0  0
  7  8  2  0  0  0
  7 16  1  0  0  0
  8 17  1  0  0  0
  9 18  1  0  0  0
M  END
$$$$
