3A9_1_A_201
  -ISIS-            3D

 17 18  0  0  0  0  0  0  0  0  1 V2000
  -46.2280  -29.5000    2.8880 C   0  0  0  0  0
  -45.2720  -29.5770    3.6630 O   0  0  0  0  0
  -47.6240  -29.3540    3.4820 C   0  0  0  0  0
  -46.0430  -29.5650    1.6320 O   0  0  0  0  0
  -48.6500  -29.0250    2.6110 C   0  0  0  0  0
  -51.5300  -29.0200    5.0430 O   0  0  0  0  0
  -49.9310  -28.8790    3.0570 C   0  0  0  0  0
  -50.2290  -29.0830    4.3930 C   0  0  0  0  0
  -51.3220  -29.6710    6.3060 C   0  0  0  0  0
  -49.8760  -29.5180    6.6330 C   0  0  0  0  0
  -49.2220  -29.3840    5.3070 C   0  0  0  0  0
  -47.8700  -29.5100    4.8490 C   0  0  0  0  0
  -48.4448  -28.8758    1.5374 H   0  0  0  0  0
  -50.7384  -28.6140    2.3580 H   0  0  0  0  0
  -52.2275  -29.9174    6.8602 H   0  0  0  0  0
  -49.3934  -29.6536    7.6061 H   0  0  0  0  0
  -47.0644  -29.7403    5.5638 H   0  0  0  0  0
  1  2  2  0  0  0
  1  3  1  0  0  0
  1  4  2  0  0  0
  3  5  2  0  0  0
  3 12  1  0  0  0
  5  7  1  0  0  0
  5 13  1  0  0  0
  6  8  1  0  0  0
  6  9  1  0  0  0
  7  8  2  0  0  0
  7 14  1  0  0  0
  8 11  1  0  0  0
  9 10  1  0  0  0
  9 15  1  0  0  0
 10 11  1  0  0  0
 10 16  1  0  0  0
 11 12  2  0  0  0
 12 17  1  0  0  0
M  END
$$$$
