DMS_1_A_401
  -ISIS-            3D

 10  9  0  0  0  0  0  0  0  0  1 V2000
    6.9620  -28.0630   21.4310 S   0  0  0  0  0
    7.7530  -27.0970   22.2320 O   0  0  0  0  0
    5.6930  -28.7050   22.4970 C   0  0  0  0  0
    5.9310  -27.0850   20.3970 C   0  0  0  0  0
    4.9821  -29.3202   21.9083 H   0  0  0  0  0
    5.1449  -27.8755   22.9890 H   0  0  0  0  0
    6.1576  -29.3427   23.2767 H   0  0  0  0  0
    5.2088  -27.7339   19.8607 H   0  0  0  0  0
    6.5557  -26.5549   19.6493 H   0  0  0  0  0
    5.3761  -26.3354   20.9977 H   0  0  0  0  0
  1  2  2  0  0  0
  1  3  1  0  0  0
  1  4  1  0  0  0
  3  5  1  0  0  0
  3  6  1  0  0  0
  3  7  1  0  0  0
  4  8  1  0  0  0
  4  9  1  0  0  0
  4 10  1  0  0  0
M  END
$$$$
