EDO_2_A_408
  -ISIS-            3D

 10  9  0  0  0  0  0  0  0  0  1 V2000
 -115.3650   46.9920   44.6270 C   0  0  0  0  0
 -114.5800   46.2130   45.5200 O   0  0  0  0  0
 -116.2970   46.0440   43.8930 C   0  0  0  0  0
 -115.5220   44.9520   43.4070 O   0  0  0  0  0
 -114.6990   47.5251   43.9164 H   0  0  0  0  0
 -115.9326   47.7563   45.1958 H   0  0  0  0  0
 -114.2571   45.4691   45.0241 H   0  0  0  0  0
 -116.8008   46.5622   43.0503 H   0  0  0  0  0
 -117.0845   45.6653   44.5788 H   0  0  0  0  0
 -116.1028   44.3542   42.9557 H   0  0  0  0  0
  1  2  1  0  0  0
  1  3  1  0  0  0
  1  5  1  0  0  0
  1  6  1  0  0  0
  2  7  1  0  0  0
  3  4  1  0  0  0
  3  8  1  0  0  0
  3  9  1  0  0  0
  4 10  1  0  0  0
M  END
$$$$
