EDO_3_B_409
  -ISIS-            3D

 10  9  0  0  0  0  0  0  0  0  1 V2000
  -79.6860   -4.0470  -26.8720 C   0  0  0  0  0
  -78.7940   -5.1740  -26.7850 O   0  0  0  0  0
  -80.2200   -3.9290  -28.2890 C   0  0  0  0  0
  -79.1630   -3.3840  -29.0920 O   0  0  0  0  0
  -79.1661   -3.1205  -26.5505 H   0  0  0  0  0
  -80.5241   -4.2125  -26.1635 H   0  0  0  0  0
  -78.1020   -5.0171  -27.4160 H   0  0  0  0  0
  -81.0932   -3.2433  -28.3165 H   0  0  0  0  0
  -80.5442   -4.9133  -28.6864 H   0  0  0  0  0
  -79.4837   -3.2931  -29.9793 H   0  0  0  0  0
  1  2  1  0  0  0
  1  3  1  0  0  0
  1  5  1  0  0  0
  1  6  1  0  0  0
  2  7  1  0  0  0
  3  4  1  0  0  0
  3  8  1  0  0  0
  3  9  1  0  0  0
  4 10  1  0  0  0
M  END
$$$$
