EDO_3_A_409
  -ISIS-            3D

 10  9  0  0  0  0  0  0  0  0  1 V2000
  -71.9720   29.5790   29.3830 C   0  0  0  0  0
  -72.7310   30.6130   30.0160 O   0  0  0  0  0
  -72.6030   28.2510   29.7800 C   0  0  0  0  0
  -73.8080   27.9870   29.0430 O   0  0  0  0  0
  -70.9121   29.6298   29.7109 H   0  0  0  0  0
  -71.9893   29.7207   28.2832 H   0  0  0  0  0
  -72.3047   30.8497   30.8292 H   0  0  0  0  0
  -72.8139   28.2150   30.8694 H   0  0  0  0  0
  -71.8899   27.4264   29.5703 H   0  0  0  0  0
  -74.3710   28.7417   29.1642 H   0  0  0  0  0
  1  2  1  0  0  0
  1  3  1  0  0  0
  1  5  1  0  0  0
  1  6  1  0  0  0
  2  7  1  0  0  0
  3  4  1  0  0  0
  3  8  1  0  0  0
  3  9  1  0  0  0
  4 10  1  0  0  0
M  END
$$$$
