EDO_1_A_407
  -ISIS-            3D

 10  9  0  0  0  0  0  0  0  0  1 V2000
  -49.9320   54.5510   12.8540 C   0  0  0  0  0
  -50.4310   55.4410   13.8600 O   0  0  0  0  0
  -48.4080   54.5400   12.8870 C   0  0  0  0  0
  -47.8690   55.2270   11.7500 O   0  0  0  0  0
  -50.3238   54.8300   11.8537 H   0  0  0  0  0
  -50.3195   53.5345   13.0751 H   0  0  0  0  0
  -50.5367   56.2991   13.4706 H   0  0  0  0  0
  -48.0453   53.4913   12.8503 H   0  0  0  0  0
  -48.0115   54.9744   13.8285 H   0  0  0  0  0
  -47.7366   56.1352   11.9882 H   0  0  0  0  0
  1  2  1  0  0  0
  1  3  1  0  0  0
  1  5  1  0  0  0
  1  6  1  0  0  0
  2  7  1  0  0  0
  3  4  1  0  0  0
  3  8  1  0  0  0
  3  9  1  0  0  0
  4 10  1  0  0  0
M  END
$$$$
