EDO_3_A_402
  -ISIS-            3D

 10  9  0  0  0  0  0  0  0  0  1 V2000
  -95.3670   45.3390    0.0750 C   0  0  0  0  0
  -96.3580   44.8880    1.0400 O   0  0  0  0  0
  -95.8830   46.3000   -0.9900 C   0  0  0  0  0
  -97.1600   46.8600   -0.5890 O   0  0  0  0  0
  -94.9070   44.4533   -0.4128 H   0  0  0  0  0
  -94.5491   45.8399    0.6370 H   0  0  0  0  0
  -95.9247   44.3221    1.6646 H   0  0  0  0  0
  -96.0255   45.7647   -1.9521 H   0  0  0  0  0
  -95.1621   47.1218   -1.1776 H   0  0  0  0  0
  -97.5362   46.2643    0.0490 H   0  0  0  0  0
  1  2  1  0  0  0
  1  3  1  0  0  0
  1  5  1  0  0  0
  1  6  1  0  0  0
  2  7  1  0  0  0
  3  4  1  0  0  0
  3  8  1  0  0  0
  3  9  1  0  0  0
  4 10  1  0  0  0
M  END
$$$$
