EDO_3_B_405
  -ISIS-            3D

 10  9  0  0  0  0  0  0  0  0  1 V2000
  -76.4620   -2.7850  -33.0620 C   0  0  0  0  0
  -77.6790   -2.0420  -32.9320 O   0  0  0  0  0
  -75.8530   -2.9970  -31.6800 C   0  0  0  0  0
  -75.0480   -1.8710  -31.3190 O   0  0  0  0  0
  -75.7564   -2.2571  -33.7370 H   0  0  0  0  0
  -76.6919   -3.7683  -33.5252 H   0  0  0  0  0
  -78.0496   -1.9259  -33.7968 H   0  0  0  0  0
  -75.1994   -3.8942  -31.6919 H   0  0  0  0  0
  -76.6331   -3.1771  -30.9114 H   0  0  0  0  0
  -75.6299   -1.1242  -31.2545 H   0  0  0  0  0
  1  2  1  0  0  0
  1  3  1  0  0  0
  1  5  1  0  0  0
  1  6  1  0  0  0
  2  7  1  0  0  0
  3  4  1  0  0  0
  3  8  1  0  0  0
  3  9  1  0  0  0
  4 10  1  0  0  0
M  END
$$$$
