EDO_2_A_409
  -ISIS-            3D

 10  9  0  0  0  0  0  0  0  0  1 V2000
  -89.1820   47.5400   29.3830 C   0  0  0  0  0
  -87.9070   47.6810   30.0160 O   0  0  0  0  0
  -90.0170   48.7510   29.7800 C   0  0  0  0  0
  -89.6420   49.9260   29.0430 O   0  0  0  0  0
  -89.6558   46.6033   29.7431 H   0  0  0  0  0
  -89.0663   47.4597   28.2823 H   0  0  0  0  0
  -87.5244   48.4858   29.6881 H   0  0  0  0  0
  -89.9331   48.9463   30.8701 H   0  0  0  0  0
  -91.0877   48.5355   29.5753 H   0  0  0  0  0
  -90.1961   50.6416   29.3249 H   0  0  0  0  0
  1  2  1  0  0  0
  1  3  1  0  0  0
  1  5  1  0  0  0
  1  6  1  0  0  0
  2  7  1  0  0  0
  3  4  1  0  0  0
  3  8  1  0  0  0
  3  9  1  0  0  0
  4 10  1  0  0  0
M  END
$$$$
