EDO_2_B_403
  -ISIS-            3D

 10  9  0  0  0  0  0  0  0  0  1 V2000
  -85.3960   68.7610  -20.1640 C   0  0  0  0  0
  -85.9840   69.9160  -19.5200 O   0  0  0  0  0
  -84.7030   69.2520  -21.4360 C   0  0  0  0  0
  -84.0900   68.2030  -22.1870 O   0  0  0  0  0
  -86.1893   68.0232  -20.4059 H   0  0  0  0  0
  -84.6663   68.2770  -19.4816 H   0  0  0  0  0
  -86.3589   69.6343  -18.6959 H   0  0  0  0  0
  -83.9165   69.9881  -21.1677 H   0  0  0  0  0
  -85.4284   69.7893  -22.0838 H   0  0  0  0  0
  -84.7663   67.7459  -22.6693 H   0  0  0  0  0
  1  2  1  0  0  0
  1  3  1  0  0  0
  1  5  1  0  0  0
  1  6  1  0  0  0
  2  7  1  0  0  0
  3  4  1  0  0  0
  3  8  1  0  0  0
  3  9  1  0  0  0
  4 10  1  0  0  0
M  END
$$$$
