EDO_1_A_410
  -ISIS-            3D

 10  9  0  0  0  0  0  0  0  0  1 V2000
  -49.1730   65.0490   46.2210 C   0  0  0  0  0
  -48.6830   66.3890   46.3560 O   0  0  0  0  0
  -50.1750   64.7800   47.3310 C   0  0  0  0  0
  -51.0210   65.9300   47.4110 O   0  0  0  0  0
  -48.3249   64.3358   46.2653 H   0  0  0  0  0
  -49.6514   64.9357   45.2253 H   0  0  0  0  0
  -49.4392   66.9431   46.5116 H   0  0  0  0  0
  -49.6538   64.6329   48.3006 H   0  0  0  0  0
  -50.7740   63.8702   47.1182 H   0  0  0  0  0
  -51.6458   65.7884   48.1095 H   0  0  0  0  0
  1  2  1  0  0  0
  1  3  1  0  0  0
  1  5  1  0  0  0
  1  6  1  0  0  0
  2  7  1  0  0  0
  3  4  1  0  0  0
  3  8  1  0  0  0
  3  9  1  0  0  0
  4 10  1  0  0  0
M  END
$$$$
