EDO_1_B_407
  -ISIS-            3D

 10  9  0  0  0  0  0  0  0  0  1 V2000
  -49.1570   49.2230  -33.8910 C   0  0  0  0  0
  -48.1780   50.2180  -33.5600 O   0  0  0  0  0
  -50.3930   49.8680  -34.5300 C   0  0  0  0  0
  -50.5210   49.5770  -35.9360 O   0  0  0  0  0
  -49.4506   48.6878  -32.9627 H   0  0  0  0  0
  -48.7102   48.4694  -34.5726 H   0  0  0  0  0
  -47.4408   49.7852  -33.1493 H   0  0  0  0  0
  -50.3930   50.9673  -34.3750 H   0  0  0  0  0
  -51.3056   49.4870  -34.0252 H   0  0  0  0  0
  -49.8582   50.0781  -36.3926 H   0  0  0  0  0
  1  2  1  0  0  0
  1  3  1  0  0  0
  1  5  1  0  0  0
  1  6  1  0  0  0
  2  7  1  0  0  0
  3  4  1  0  0  0
  3  8  1  0  0  0
  3  9  1  0  0  0
  4 10  1  0  0  0
M  END
$$$$
