EDO_1_A_411
  -ISIS-            3D

 10  9  0  0  0  0  0  0  0  0  1 V2000
  -44.9410   67.0500   42.5510 C   0  0  0  0  0
  -44.1720   65.8570   42.3290 O   0  0  0  0  0
  -44.3080   67.9090   43.6470 C   0  0  0  0  0
  -44.9200   69.2070   43.6720 O   0  0  0  0  0
  -45.9891   66.7888   42.8083 H   0  0  0  0  0
  -44.9737   67.6203   41.5993 H   0  0  0  0  0
  -44.4483   65.2028   42.9570 H   0  0  0  0  0
  -43.2200   68.0248   43.4551 H   0  0  0  0  0
  -44.4236   67.4210   44.6376 H   0  0  0  0  0
  -44.4608   69.7398   44.3080 H   0  0  0  0  0
  1  2  1  0  0  0
  1  3  1  0  0  0
  1  5  1  0  0  0
  1  6  1  0  0  0
  2  7  1  0  0  0
  3  4  1  0  0  0
  3  8  1  0  0  0
  3  9  1  0  0  0
  4 10  1  0  0  0
M  END
$$$$
