HBD_1_A_201
  -ISIS-            3D

 17 17  0  0  0  0  0  0  0  0  1 V2000
   10.3150    4.0180   18.7910 C   0  0  0  0  0
   10.3620    3.0370   19.7760 C   0  0  0  0  0
   10.7050    1.7320   19.4520 C   0  0  0  0  0
   11.0010    1.3980   18.1430 C   0  0  0  0  0
   10.9550    2.3710   17.1580 C   0  0  0  0  0
   10.6130    3.6690   17.4790 C   0  0  0  0  0
    9.9310    5.4630   19.1540 C   0  0  0  0  0
   10.2180    5.9230   20.2040 O   0  0  0  0  0
    9.2010    6.3210   18.2360 N   0  0  0  0  0
   11.3420    0.0840   17.8060 O   0  0  0  0  0
   10.1260    3.2968   20.8216 H   0  0  0  0  0
   10.7362    0.9710   20.2502 H   0  0  0  0  0
   11.1929    2.1024   16.1151 H   0  0  0  0  0
   10.5870    4.4296   16.6813 H   0  0  0  0  0
    8.9225    5.9542   17.3170 H   0  0  0  0  0
    8.9803    7.2782   18.5385 H   0  0  0  0  0
   11.3488   -0.4915   18.5575 H   0  0  0  0  0
  1  2  2  0  0  0
  1  6  1  0  0  0
  1  7  1  0  0  0
  2  3  1  0  0  0
  2 11  1  0  0  0
  3  4  2  0  0  0
  3 12  1  0  0  0
  4  5  1  0  0  0
  4 10  1  0  0  0
  5  6  2  0  0  0
  5 13  1  0  0  0
  6 14  1  0  0  0
  7  8  2  0  0  0
  7  9  1  0  0  0
  9 15  1  0  0  0
  9 16  1  0  0  0
 10 17  1  0  0  0
M  END
$$$$
