DMS_1_A_401
  -ISIS-            3D

 10  9  0  0  0  0  0  0  0  0  1 V2000
    7.1000  -28.1480   21.4380 S   0  0  0  0  0
    6.2510  -27.3090   20.4780 O   0  0  0  0  0
    7.9440  -27.0460   22.3830 C   0  0  0  0  0
    5.9220  -28.7190   22.6390 C   0  0  0  0  0
    8.4512  -27.5677   23.2201 H   0  0  0  0  0
    7.2642  -26.2737   22.7979 H   0  0  0  0  0
    8.7169  -26.5414   21.7679 H   0  0  0  0  0
    6.4504  -29.2194   23.4762 H   0  0  0  0  0
    5.2371  -29.4496   22.1619 H   0  0  0  0  0
    5.3262  -27.8704   23.0336 H   0  0  0  0  0
  1  2  2  0  0  0
  1  3  1  0  0  0
  1  4  1  0  0  0
  3  5  1  0  0  0
  3  6  1  0  0  0
  3  7  1  0  0  0
  4  8  1  0  0  0
  4  9  1  0  0  0
  4 10  1  0  0  0
M  END
$$$$
