DMS_2_A_402
  -ISIS-            3D

 10  9  0  0  0  0  0  0  0  0  1 V2000
   -6.1060   -1.1420    6.0870 S   0  0  0  0  0
   -6.7560   -0.6270    7.3360 O   0  0  0  0  0
   -7.2990   -0.9560    4.7940 C   0  0  0  0  0
   -6.1150   -2.9120    6.1800 C   0  0  0  0  0
   -6.9262   -1.4344    3.8653 H   0  0  0  0  0
   -7.4631    0.1235    4.5985 H   0  0  0  0  0
   -8.2632   -1.4198    5.0870 H   0  0  0  0  0
   -5.7664   -3.3417    5.2186 H   0  0  0  0  0
   -7.1368   -3.2824    6.4018 H   0  0  0  0  0
   -5.4293   -3.2400    6.9879 H   0  0  0  0  0
  1  2  2  0  0  0
  1  3  1  0  0  0
  1  4  1  0  0  0
  3  5  1  0  0  0
  3  6  1  0  0  0
  3  7  1  0  0  0
  4  8  1  0  0  0
  4  9  1  0  0  0
  4 10  1  0  0  0
M  END
$$$$
