DMS_1_E_901
  -ISIS-            3D

 10  9  0  0  0  0  0  0  0  0  1 V2000
   -1.2280   19.4040   20.7810 S   0  0  0  0  0
   -2.1910   18.9400   19.7360 O   0  0  0  0  0
    0.4570   19.2960   20.1220 C   0  0  0  0  0
   -1.1290   18.1730   22.1110 C   0  0  0  0  0
    1.1832   19.5763   20.9121 H   0  0  0  0  0
    0.5602   19.9950   19.2670 H   0  0  0  0  0
    0.6615   18.2614   19.7776 H   0  0  0  0  0
   -0.3620   18.4851   22.8490 H   0  0  0  0  0
   -0.8597   17.1831   21.6887 H   0  0  0  0  0
   -2.1140   18.1015   22.6159 H   0  0  0  0  0
  1  2  2  0  0  0
  1  3  1  0  0  0
  1  4  1  0  0  0
  3  5  1  0  0  0
  3  6  1  0  0  0
  3  7  1  0  0  0
  4  8  1  0  0  0
  4  9  1  0  0  0
  4 10  1  0  0  0
M  END
$$$$
