DMS_1_L_1601
  -ISIS-            3D

 10  9  0  0  0  0  0  0  0  0  1 V2000
    0.2450   32.6410   39.7180 S   0  0  0  0  0
    0.2880   34.1320   39.7800 O   0  0  0  0  0
   -1.3780   32.0140   39.2030 C   0  0  0  0  0
    0.3740   31.9600   41.3940 C   0  0  0  0  0
   -1.3666   30.9050   39.2112 H   0  0  0  0  0
   -1.5984   32.3708   38.1762 H   0  0  0  0  0
   -2.1599   32.3842   39.8973 H   0  0  0  0  0
    0.3308   30.8526   41.3484 H   0  0  0  0  0
   -0.4605   32.3400   42.0183 H   0  0  0  0  0
    1.3401   32.2703   41.8420 H   0  0  0  0  0
  1  2  2  0  0  0
  1  3  1  0  0  0
  1  4  1  0  0  0
  3  5  1  0  0  0
  3  6  1  0  0  0
  3  7  1  0  0  0
  4  8  1  0  0  0
  4  9  1  0  0  0
  4 10  1  0  0  0
M  END
$$$$
