DMS_1_L_1602
  -ISIS-            3D

 10  9  0  0  0  0  0  0  0  0  1 V2000
   14.7680   48.9230   40.5650 S   0  0  0  0  0
   13.5580   48.9410   41.4360 O   0  0  0  0  0
   16.1830   49.2370   41.6480 C   0  0  0  0  0
   15.1120   47.2250   40.0250 C   0  0  0  0  0
   17.1218   49.1625   41.0620 H   0  0  0  0  0
   16.1997   48.4942   42.4718 H   0  0  0  0  0
   16.0993   50.2575   42.0745 H   0  0  0  0  0
   16.0691   47.2013   39.4650 H   0  0  0  0  0
   14.2920   46.8788   39.3632 H   0  0  0  0  0
   15.1800   46.5563   40.9075 H   0  0  0  0  0
  1  2  2  0  0  0
  1  3  1  0  0  0
  1  4  1  0  0  0
  3  5  1  0  0  0
  3  6  1  0  0  0
  3  7  1  0  0  0
  4  8  1  0  0  0
  4  9  1  0  0  0
  4 10  1  0  0  0
M  END
$$$$
