3A7_1_B_401
  -ISIS-            3D

 59 62  0  0  0  0  0  0  0  0  1 V2000
  -26.3650  -15.1350   21.7230 C   0  0  0  0  0
  -26.5840  -16.4970   21.9360 C   0  0  0  0  0
  -26.4460  -17.0150   23.2020 C   0  0  0  0  0
  -26.0980  -16.1590   24.2490 C   0  0  0  0  0
  -25.8870  -14.7820   24.0460 C   0  0  0  0  0
  -26.0100  -14.2670   22.7630 C   0  0  0  0  0
  -28.0450  -12.7740   20.9320 C   0  0  0  0  0
  -22.6870   -9.4570   19.1620 O   0  0  0  0  0
  -23.6770  -10.1830   19.1190 C   0  0  0  0  0
  -24.1140  -10.9020   17.8330 C   0  0  0  0  0
  -23.7490  -10.1530   16.5560 C   0  0  0  0  0
  -23.2980  -10.9980   15.3890 C   0  0  0  0  0
  -23.2440  -10.5170   14.1360 N   0  0  0  0  0
  -22.7630  -11.5100   13.3470 C   0  0  0  0  0
  -22.5570  -12.6090   14.0950 N   0  0  0  0  0
  -22.8690  -12.3160   15.3710 C   0  0  0  0  0
  -25.5810  -11.0540   17.7720 N   0  0  0  0  0
  -26.0780  -11.7290   18.9890 C   0  0  0  0  0
  -26.9850  -12.9190   18.7010 C   0  0  0  0  0
  -28.3190  -12.5330   18.0410 C   0  0  0  0  0
  -29.3040  -11.8500   18.9860 C   0  0  0  0  0
  -30.6910  -11.7620   18.3520 C   0  0  0  0  0
  -31.7040  -11.1030   19.2910 C   0  0  0  0  0
  -31.7680  -11.7620   20.6760 C   0  0  0  0  0
  -30.3800  -11.9920   21.2970 C   0  0  0  0  0
  -29.4050  -12.6350   20.2940 C   0  0  0  0  0
  -27.1660  -13.5230   20.0270 N   0  0  0  0  0
  -26.5140  -14.6680   20.3220 C   0  0  0  0  0
  -26.0090  -15.4220   19.4940 O   0  0  0  0  0
  -25.9310  -16.9320   25.9680 Br  0  0  0  0  0
  -26.8629  -17.1618   21.1017 H   0  0  0  0  0
  -26.6118  -18.0914   23.3759 H   0  0  0  0  0
  -25.6183  -14.1218   24.8872 H   0  0  0  0  0
  -25.8219  -13.1974   22.5757 H   0  0  0  0  0
  -28.1807  -13.3154   21.8945 H   0  0  0  0  0
  -27.6275  -11.7803   21.2036 H   0  0  0  0  0
  -24.2517  -10.3350   20.0636 H   0  0  0  0  0
  -23.6317  -11.9055   17.8491 H   0  0  0  0  0
  -22.9055   -9.4578   16.7667 H   0  0  0  0  0
  -24.5898   -9.4970   16.2353 H   0  0  0  0  0
  -22.5705  -11.5123   12.2673 H   0  0  0  0  0
  -22.1172  -13.7697   13.6551 H   0  0  0  0  0
  -22.7491  -13.0823   16.1452 H   0  0  0  0  0
  -25.8097  -11.6137   16.9544 H   0  0  0  0  0
  -26.5885  -10.9650   19.6129 H   0  0  0  0  0
  -25.2241  -12.1172   19.5886 H   0  0  0  0  0
  -26.4459  -13.6118   18.0118 H   0  0  0  0  0
  -28.7872  -13.4700   17.6572 H   0  0  0  0  0
  -28.1416  -11.8940   17.1466 H   0  0  0  0  0
  -28.9412  -10.8168   19.2038 H   0  0  0  0  0
  -31.0540  -12.7805   18.0810 H   0  0  0  0  0
  -30.6370  -11.1825   17.4012 H   0  0  0  0  0
  -32.7157  -11.1139   18.8230 H   0  0  0  0  0
  -31.4312  -10.0291   19.4176 H   0  0  0  0  0
  -32.2820  -12.7469   20.5781 H   0  0  0  0  0
  -32.3957  -11.1481   21.3625 H   0  0  0  0  0
  -30.4793  -12.6280   22.2069 H   0  0  0  0  0
  -29.9706  -11.0116   21.6349 H   0  0  0  0  0
  -29.7874  -13.6607   20.0639 H   0  0  0  0  0
  1  2  2  0  0  0
  1  6  1  0  0  0
  1 28  1  0  0  0
  2  3  1  0  0  0
  2 31  1  0  0  0
  3  4  2  0  0  0
  3 32  1  0  0  0
  4  5  1  0  0  0
  4 30  1  0  0  0
  5  6  2  0  0  0
  5 33  1  0  0  0
  6 34  1  0  0  0
  7 26  1  0  0  0
  7 27  1  0  0  0
  7 35  1  0  0  0
  7 36  1  0  0  0
  8  9  2  0  0  0
  9 10  1  0  0  0
  9 37  1  0  0  0
 10 11  1  0  0  0
 10 17  1  0  0  0
 10 38  1  0  0  0
 11 12  1  0  0  0
 11 39  1  0  0  0
 11 40  1  0  0  0
 12 13  2  0  0  0
 12 16  1  0  0  0
 13 14  1  0  0  0
 14 15  1  0  0  0
 14 41  1  0  0  0
 15 16  1  0  0  0
 15 42  1  0  0  0
 16 43  1  0  0  0
 17 18  1  0  0  0
 17 44  1  0  0  0
 18 19  1  0  0  0
 18 45  1  0  0  0
 18 46  1  0  0  0
 19 20  1  0  0  0
 19 27  1  0  0  0
 19 47  1  0  0  0
 20 21  1  0  0  0
 20 48  1  0  0  0
 20 49  1  0  0  0
 21 22  1  0  0  0
 21 26  1  0  0  0
 21 50  1  0  0  0
 22 23  1  0  0  0
 22 51  1  0  0  0
 22 52  1  0  0  0
 23 24  1  0  0  0
 23 53  1  0  0  0
 23 54  1  0  0  0
 24 25  1  0  0  0
 24 55  1  0  0  0
 24 56  1  0  0  0
 25 26  1  0  0  0
 25 57  1  0  0  0
 25 58  1  0  0  0
 26 59  1  0  0  0
 27 28  1  0  0  0
 28 29  2  0  0  0
M  END
$$$$
