DMS_2_A_401
  -ISIS-            3D

 10  9  0  0  0  0  0  0  0  0  1 V2000
   -6.8370  -28.0820  -21.4590 S   0  0  0  0  0
   -7.6490  -27.1560  -22.2730 O   0  0  0  0  0
   -5.5630  -28.6780  -22.5470 C   0  0  0  0  0
   -5.8290  -27.0350  -20.4520 C   0  0  0  0  0
   -4.8131  -29.2542  -21.9673 H   0  0  0  0  0
   -5.0626  -27.8305  -23.0591 H   0  0  0  0  0
   -6.0149  -29.3447  -23.3095 H   0  0  0  0  0
   -5.0710  -27.6434  -19.9173 H   0  0  0  0  0
   -6.4661  -26.5211  -19.7036 H   0  0  0  0  0
   -5.3170  -26.2722  -21.0743 H   0  0  0  0  0
  1  2  2  0  0  0
  1  3  1  0  0  0
  1  4  1  0  0  0
  3  5  1  0  0  0
  3  6  1  0  0  0
  3  7  1  0  0  0
  4  8  1  0  0  0
  4  9  1  0  0  0
  4 10  1  0  0  0
M  END
$$$$
