DMS_2_A_402
  -ISIS-            3D

 10  9  0  0  0  0  0  0  0  0  1 V2000
   -6.1850   -1.1400    6.2870 S   0  0  0  0  0
   -7.1160   -1.1750    7.4130 O   0  0  0  0  0
   -7.1960   -0.8450    4.8460 C   0  0  0  0  0
   -5.7610   -2.8170    5.9180 C   0  0  0  0  0
   -6.5807   -0.9432    3.9284 H   0  0  0  0  0
   -7.6076    0.1840    4.8921 H   0  0  0  0  0
   -8.0361   -1.5687    4.8075 H   0  0  0  0  0
   -5.1786   -2.8602    4.9750 H   0  0  0  0  0
   -6.6762   -3.4356    5.8154 H   0  0  0  0  0
   -5.1397   -3.2276    6.7400 H   0  0  0  0  0
  1  2  2  0  0  0
  1  3  1  0  0  0
  1  4  1  0  0  0
  3  5  1  0  0  0
  3  6  1  0  0  0
  3  7  1  0  0  0
  4  8  1  0  0  0
  4  9  1  0  0  0
  4 10  1  0  0  0
M  END
$$$$
