DMS_2_A_1003
  -ISIS-            3D

 10  9  0  0  0  0  0  0  0  0  1 V2000
   -6.1850   -1.0210    6.2390 S   0  0  0  0  0
   -7.0440   -0.6780    7.3730 O   0  0  0  0  0
   -7.2670   -1.0270    4.8220 C   0  0  0  0  0
   -5.8740   -2.7500    6.3670 C   0  0  0  0  0
   -6.7228   -1.4163    3.9373 H   0  0  0  0  0
   -7.6010    0.0095    4.6106 H   0  0  0  0  0
   -8.1556   -1.6618    5.0177 H   0  0  0  0  0
   -5.3523   -3.1066    5.4554 H   0  0  0  0  0
   -6.8256   -3.3073    6.4877 H   0  0  0  0  0
   -5.2278   -2.9441    7.2475 H   0  0  0  0  0
  1  2  2  0  0  0
  1  3  1  0  0  0
  1  4  1  0  0  0
  3  5  1  0  0  0
  3  6  1  0  0  0
  3  7  1  0  0  0
  4  8  1  0  0  0
  4  9  1  0  0  0
  4 10  1  0  0  0
M  END
$$$$
