BXW_1_A_201
  -ISIS-            3D

 20 21  0  0  0  0  0  0  0  0  1 V2000
  -45.7000  -29.4640    2.8750 O   0  0  0  0  0
  -46.9260  -29.2070    2.8200 C   0  0  0  0  0
  -47.7470  -29.1430    4.0740 C   0  0  0  0  0
  -47.4960  -29.0170    1.7410 O   0  0  0  0  0
  -47.0620  -29.1090    5.2980 C   0  0  0  0  0
  -47.7910  -29.0690    6.4670 C   0  0  0  0  0
  -49.1390  -29.1350    4.0220 C   0  0  0  0  0
  -49.8750  -29.0880    5.2110 C   0  0  0  0  0
  -49.1850  -29.0620    6.4080 C   0  0  0  0  0
  -49.9600  -29.0180    7.7690 N   0  0  0  0  0
  -51.3620  -29.5620    7.8970 C   0  0  0  0  0
  -51.8790  -30.1330    6.5860 C   0  0  0  0  0
  -51.6230  -29.0950    5.2500 S   0  0  0  0  0
  -51.9190  -29.5330    8.9160 O   0  0  0  0  0
  -45.9604  -29.1160    5.3401 H   0  0  0  0  0
  -47.2720  -29.0454    7.4391 H   0  0  0  0  0
  -49.6673  -29.1681    3.0552 H   0  0  0  0  0
  -49.4523  -28.6197    8.5680 H   0  0  0  0  0
  -52.9661  -30.3457    6.6971 H   0  0  0  0  0
  -51.3973  -31.1219    6.4125 H   0  0  0  0  0
  1  2  2  0  0  0
  2  3  1  0  0  0
  2  4  2  0  0  0
  3  5  2  0  0  0
  3  7  1  0  0  0
  5  6  1  0  0  0
  5 15  1  0  0  0
  6  9  2  0  0  0
  6 16  1  0  0  0
  7  8  2  0  0  0
  7 17  1  0  0  0
  8  9  1  0  0  0
  8 13  1  0  0  0
  9 10  1  0  0  0
 10 11  1  0  0  0
 10 18  1  0  0  0
 11 12  1  0  0  0
 11 14  2  0  0  0
 12 13  1  0  0  0
 12 19  1  0  0  0
 12 20  1  0  0  0
M  END
$$$$
