DMS_1_A_402
  -ISIS-            3D

 10  9  0  0  0  0  0  0  0  0  1 V2000
   28.3870   34.0590   14.0980 S   0  0  0  0  0
   28.1480   32.7130   13.4830 O   0  0  0  0  0
   27.0540   35.1550   13.6170 C   0  0  0  0  0
   29.7260   34.7950   13.1990 C   0  0  0  0  0
   27.2720   36.1846   13.9674 H   0  0  0  0  0
   26.1079   34.8075   14.0800 H   0  0  0  0  0
   26.9410   35.1550   12.5135 H   0  0  0  0  0
   29.8863   35.8349   13.5497 H   0  0  0  0  0
   29.4992   34.8031   12.1131 H   0  0  0  0  0
   30.6525   34.2101   13.3718 H   0  0  0  0  0
  1  2  2  0  0  0
  1  3  1  0  0  0
  1  4  1  0  0  0
  3  5  1  0  0  0
  3  6  1  0  0  0
  3  7  1  0  0  0
  4  8  1  0  0  0
  4  9  1  0  0  0
  4 10  1  0  0  0
M  END
$$$$
