DMS_2_A_402
  -ISIS-            3D

 10  9  0  0  0  0  0  0  0  0  1 V2000
   -6.1550   -1.0460    6.2760 S   0  0  0  0  0
   -7.1980   -0.8180    7.3060 O   0  0  0  0  0
   -6.9880   -0.9900    4.6940 C   0  0  0  0  0
   -5.7870   -2.7680    6.2900 C   0  0  0  0  0
   -6.2843   -1.2835    3.8884 H   0  0  0  0  0
   -7.3405    0.0443    4.5032 H   0  0  0  0  0
   -7.8601   -1.6755    4.6928 H   0  0  0  0  0
   -5.1123   -3.0169    5.4454 H   0  0  0  0  0
   -6.7182   -3.3649    6.2063 H   0  0  0  0  0
   -5.2780   -3.0272    7.2409 H   0  0  0  0  0
  1  2  2  0  0  0
  1  3  1  0  0  0
  1  4  1  0  0  0
  3  5  1  0  0  0
  3  6  1  0  0  0
  3  7  1  0  0  0
  4  8  1  0  0  0
  4  9  1  0  0  0
  4 10  1  0  0  0
M  END
$$$$
