DMS_2_A_501
  -ISIS-            3D

 10  9  0  0  0  0  0  0  0  0  1 V2000
   -6.8820  -28.1480  -21.6410 S   0  0  0  0  0
   -7.8050  -27.2110  -22.3090 O   0  0  0  0  0
   -5.5600  -28.4990  -22.6930 C   0  0  0  0  0
   -6.0320  -27.3570  -20.3870 C   0  0  0  0  0
   -4.8303  -29.1610  -22.1833 H   0  0  0  0  0
   -5.0507  -27.5646  -23.0061 H   0  0  0  0  0
   -5.9355  -29.0196  -23.5978 H   0  0  0  0  0
   -5.2941  -28.0466  -19.9285 H   0  0  0  0  0
   -6.7457  -27.0343  -19.6015 H   0  0  0  0  0
   -5.5037  -26.4620  -20.7748 H   0  0  0  0  0
  1  2  2  0  0  0
  1  3  1  0  0  0
  1  4  1  0  0  0
  3  5  1  0  0  0
  3  6  1  0  0  0
  3  7  1  0  0  0
  4  8  1  0  0  0
  4  9  1  0  0  0
  4 10  1  0  0  0
M  END
$$$$
