DMS_1_A_502
  -ISIS-            3D

 10  9  0  0  0  0  0  0  0  0  1 V2000
    7.0090  -28.2170   21.6190 S   0  0  0  0  0
    7.8440  -27.2070   22.3320 O   0  0  0  0  0
    5.6930  -28.7850   22.7330 C   0  0  0  0  0
    6.0260  -27.4060   20.3360 C   0  0  0  0  0
    5.0291  -29.4906   22.1931 H   0  0  0  0  0
    5.1021  -27.9169   23.0905 H   0  0  0  0  0
    6.1478  -29.3032   23.6018 H   0  0  0  0  0
    5.3559  -28.1485   19.8566 H   0  0  0  0  0
    6.7050  -26.9789   19.5700 H   0  0  0  0  0
    5.4197  -26.5923   20.7841 H   0  0  0  0  0
  1  2  2  0  0  0
  1  3  1  0  0  0
  1  4  1  0  0  0
  3  5  1  0  0  0
  3  6  1  0  0  0
  3  7  1  0  0  0
  4  8  1  0  0  0
  4  9  1  0  0  0
  4 10  1  0  0  0
M  END
$$$$
