DMS_2_A_501
  -ISIS-            3D

 10  9  0  0  0  0  0  0  0  0  1 V2000
   -6.0320    0.2840  -18.2650 S   0  0  0  0  0
   -7.1400    0.8960  -17.4740 O   0  0  0  0  0
   -6.7350   -0.5050  -19.7370 C   0  0  0  0  0
   -5.0530    1.6010  -19.0440 C   0  0  0  0  0
   -5.9166   -0.9006  -20.3726 H   0  0  0  0  0
   -7.3297    0.2335  -20.3127 H   0  0  0  0  0
   -7.3920   -1.3424  -19.4247 H   0  0  0  0  0
   -4.2771    1.1500  -19.6958 H   0  0  0  0  0
   -4.5612    2.2059  -18.2550 H   0  0  0  0  0
   -5.7148    2.2540  -19.6492 H   0  0  0  0  0
  1  2  2  0  0  0
  1  3  1  0  0  0
  1  4  1  0  0  0
  3  5  1  0  0  0
  3  6  1  0  0  0
  3  7  1  0  0  0
  4  8  1  0  0  0
  4  9  1  0  0  0
  4 10  1  0  0  0
M  END
$$$$
