DMS_1_A_402
  -ISIS-            3D

 10  9  0  0  0  0  0  0  0  0  1 V2000
   20.9130  -16.1190    5.0850 S   0  0  0  0  0
   20.1660  -15.3910    4.0210 O   0  0  0  0  0
   21.6660  -14.9310    6.2370 C   0  0  0  0  0
   19.7460  -16.9450    6.1960 C   0  0  0  0  0
   22.1697  -15.4797    7.0588 H   0  0  0  0  0
   20.8830  -14.2668    6.6568 H   0  0  0  0  0
   22.4145  -14.3193    5.6931 H   0  0  0  0  0
   20.3024  -17.4374    7.0195 H   0  0  0  0  0
   19.1804  -17.7117    5.6280 H   0  0  0  0  0
   19.0373  -16.2027    6.6170 H   0  0  0  0  0
  1  2  2  0  0  0
  1  3  1  0  0  0
  1  4  1  0  0  0
  3  5  1  0  0  0
  3  6  1  0  0  0
  3  7  1  0  0  0
  4  8  1  0  0  0
  4  9  1  0  0  0
  4 10  1  0  0  0
M  END
$$$$
