DMS_2_A_403
  -ISIS-            3D

 10  9  0  0  0  0  0  0  0  0  1 V2000
   -2.3000  -18.9160   -8.0510 S   0  0  0  0  0
   -3.6320  -18.7120   -8.7460 O   0  0  0  0  0
   -1.0550  -18.2860   -9.1480 C   0  0  0  0  0
   -1.9140  -20.6470   -8.2700 C   0  0  0  0  0
   -0.0475  -18.5511   -8.7674 H   0  0  0  0  0
   -1.1381  -17.1811   -9.1989 H   0  0  0  0  0
   -1.1879  -18.7041  -10.1669 H   0  0  0  0  0
   -0.8820  -20.8500   -7.9179 H   0  0  0  0  0
   -2.0043  -20.9317   -9.3383 H   0  0  0  0  0
   -2.6222  -21.2571   -7.6728 H   0  0  0  0  0
  1  2  2  0  0  0
  1  3  1  0  0  0
  1  4  1  0  0  0
  3  5  1  0  0  0
  3  6  1  0  0  0
  3  7  1  0  0  0
  4  8  1  0  0  0
  4  9  1  0  0  0
  4 10  1  0  0  0
M  END
$$$$
