IPA_1_A_602
  -ISIS-            3D

 12 11  0  0  0  0  0  0  0  0  1 V2000
   -2.9480  -13.5650  -44.0280 C   0  0  0  0  0
   -3.1710  -12.6850  -45.2530 C   0  0  0  0  0
   -3.5580  -11.2820  -44.7840 C   0  0  0  0  0
   -4.1710  -13.2650  -46.0460 O   0  0  0  0  0
   -2.6461  -14.5959  -44.3164 H   0  0  0  0  0
   -3.8669  -13.6550  -43.4080 H   0  0  0  0  0
   -2.1440  -13.1648  -43.3722 H   0  0  0  0  0
   -2.2202  -12.6291  -45.8318 H   0  0  0  0  0
   -3.7138  -10.5928  -45.6428 H   0  0  0  0  0
   -2.7692  -10.8279  -44.1451 H   0  0  0  0  0
   -4.5007  -11.2878  -44.1942 H   0  0  0  0  0
   -4.2131  -12.7972  -46.8695 H   0  0  0  0  0
  1  2  1  0  0  0
  1  5  1  0  0  0
  1  6  1  0  0  0
  1  7  1  0  0  0
  2  3  1  0  0  0
  2  4  1  0  0  0
  2  8  1  0  0  0
  3  9  1  0  0  0
  3 10  1  0  0  0
  3 11  1  0  0  0
  4 12  1  0  0  0
M  END
$$$$
