DMS_2_A_1004
  -ISIS-            3D

 10  9  0  0  0  0  0  0  0  0  1 V2000
   -2.2680  -19.1430   -8.2790 S   0  0  0  0  0
   -3.5720  -18.7710   -8.8410 O   0  0  0  0  0
   -1.1140  -18.1010   -9.1190 C   0  0  0  0  0
   -1.8710  -20.6780   -9.0880 C   0  0  0  0  0
   -0.0786  -18.4275   -8.8919 H   0  0  0  0  0
   -1.2425  -17.0550   -8.7727 H   0  0  0  0  0
   -1.2799  -18.1411  -10.2153 H   0  0  0  0  0
   -0.8224  -20.9602   -8.8623 H   0  0  0  0  0
   -1.9987  -20.5822  -10.1860 H   0  0  0  0  0
   -2.5449  -21.4756   -8.7136 H   0  0  0  0  0
  1  2  2  0  0  0
  1  3  1  0  0  0
  1  4  1  0  0  0
  3  5  1  0  0  0
  3  6  1  0  0  0
  3  7  1  0  0  0
  4  8  1  0  0  0
  4  9  1  0  0  0
  4 10  1  0  0  0
M  END
$$$$
