DMS_2_A_501
  -ISIS-            3D

 10  9  0  0  0  0  0  0  0  0  1 V2000
   -8.1380   -4.5420  -25.8220 S   0  0  0  0  0
   -7.4420   -5.0950  -27.0560 O   0  0  0  0  0
   -7.4470   -5.4310  -24.4510 C   0  0  0  0  0
   -7.4410   -2.9480  -25.4690 C   0  0  0  0  0
   -7.8184   -5.0013  -23.4982 H   0  0  0  0  0
   -6.3392   -5.3765  -24.4740 H   0  0  0  0  0
   -7.7576   -6.4943  -24.5091 H   0  0  0  0  0
   -7.8226   -2.5775  -24.4956 H   0  0  0  0  0
   -7.7369   -2.2347  -26.2652 H   0  0  0  0  0
   -6.3340   -3.0105  -25.4333 H   0  0  0  0  0
  1  2  2  0  0  0
  1  3  1  0  0  0
  1  4  1  0  0  0
  3  5  1  0  0  0
  3  6  1  0  0  0
  3  7  1  0  0  0
  4  8  1  0  0  0
  4  9  1  0  0  0
  4 10  1  0  0  0
M  END
$$$$
