EDO_1_A_601
  -ISIS-            3D

 10  9  0  0  0  0  0  0  0  0  1 V2000
  -16.1620   -8.3870  -24.3380 C   0  0  0  0  0
  -15.7670   -7.0150  -24.4330 O   0  0  0  0  0
  -17.2520   -8.6820  -25.3580 C   0  0  0  0  0
  -18.5010   -8.1730  -24.8810 O   0  0  0  0  0
  -16.5156   -8.5979  -23.3080 H   0  0  0  0  0
  -15.2779   -9.0355  -24.5161 H   0  0  0  0  0
  -15.2351   -6.9027  -25.2101 H   0  0  0  0  0
  -17.3446   -9.7795  -25.5024 H   0  0  0  0  0
  -17.0079   -8.2386  -26.3460 H   0  0  0  0  0
  -19.1562   -8.3045  -25.5539 H   0  0  0  0  0
  1  2  1  0  0  0
  1  3  1  0  0  0
  1  5  1  0  0  0
  1  6  1  0  0  0
  2  7  1  0  0  0
  3  4  1  0  0  0
  3  8  1  0  0  0
  3  9  1  0  0  0
  4 10  1  0  0  0
M  END
$$$$
