DMS_1_E_904
  -ISIS-            3D

 10  9  0  0  0  0  0  0  0  0  1 V2000
  -17.4680   33.3110   18.7330 S   0  0  0  0  0
  -16.5840   34.5120   18.6350 O   0  0  0  0  0
  -17.6670   32.8740   20.4810 C   0  0  0  0  0
  -16.5580   31.8510   18.1600 C   0  0  0  0  0
  -18.2568   31.9384   20.5652 H   0  0  0  0  0
  -18.2041   33.6920   21.0033 H   0  0  0  0  0
  -16.6719   32.7305   20.9497 H   0  0  0  0  0
  -17.1797   30.9443   18.3073 H   0  0  0  0  0
  -15.6108   31.7498   18.7285 H   0  0  0  0  0
  -16.3280   31.9643   17.0809 H   0  0  0  0  0
  1  2  2  0  0  0
  1  3  1  0  0  0
  1  4  1  0  0  0
  3  5  1  0  0  0
  3  6  1  0  0  0
  3  7  1  0  0  0
  4  8  1  0  0  0
  4  9  1  0  0  0
  4 10  1  0  0  0
M  END
$$$$
