MLI_1_E_908
  -ISIS-            3D

  9  8  0  0  0  0  0  0  0  0  1 V2000
    9.5250   37.5770   19.8660 C   0  0  0  0  0
    8.8900   38.9630   19.9880 C   0  0  0  0  0
   10.8930   37.6380   19.1830 C   0  0  0  0  0
    7.7180   39.1530   19.5690 O   0  0  0  0  0
    9.5230   39.9160   20.5130 O   0  0  0  0  0
   11.3800   36.5950   18.6740 O   0  0  0  0  0
   11.5400   38.7170   19.1240 O   0  0  0  0  0
    8.8519   36.8973   19.2962 H   0  0  0  0  0
    9.6426   37.1369   20.8823 H   0  0  0  0  0
  1  2  1  0  0  0
  1  3  1  0  0  0
  1  8  1  0  0  0
  1  9  1  0  0  0
  2  4  2  0  0  0
  2  5  2  0  0  0
  3  6  2  0  0  0
  3  7  2  0  0  0
M  END
$$$$
