4BX_1_A_201
  -ISIS-            3D

 23 24  0  0  0  0  0  0  0  0  1 V2000
  -47.6420  -28.6030    5.0250 C   0  0  0  0  0
  -48.3210  -28.4380    3.8280 C   0  0  0  0  0
  -49.6920  -28.6460    3.7470 C   0  0  0  0  0
  -48.3280  -28.9850    6.1630 C   0  0  0  0  0
  -50.6050  -29.6100    7.0090 N   0  0  0  0  0
  -49.7140  -29.2120    6.0960 C   0  0  0  0  0
  -50.3850  -29.0510    4.9090 C   0  0  0  0  0
  -51.6790  -29.3660    5.1520 N   0  0  0  0  0
  -51.7830  -29.6850    6.4210 C   0  0  0  0  0
  -53.0390  -30.0250    7.1630 C   0  0  0  0  0
  -53.7470  -28.6960    7.3830 C   0  0  0  0  0
  -54.9960  -28.7280    8.2080 C   0  0  0  0  0
  -55.7420  -29.7270    8.2000 O   0  0  0  0  0
  -55.3030  -27.7160    8.8630 O   0  0  0  0  0
  -46.5535  -28.4293    5.0701 H   0  0  0  0  0
  -47.7647  -28.1329    2.9252 H   0  0  0  0  0
  -50.2322  -28.5078    2.7964 H   0  0  0  0  0
  -47.7976  -29.1192    7.1199 H   0  0  0  0  0
  -52.6534  -29.3574    4.2664 H   0  0  0  0  0
  -52.8014  -30.5155    8.1337 H   0  0  0  0  0
  -53.6669  -30.7262    6.5689 H   0  0  0  0  0
  -54.0065  -28.2496    6.3944 H   0  0  0  0  0
  -53.0348  -27.9831    7.8622 H   0  0  0  0  0
  1  2  2  0  0  0
  1  4  1  0  0  0
  1 15  1  0  0  0
  2  3  1  0  0  0
  2 16  1  0  0  0
  3  7  2  0  0  0
  3 17  1  0  0  0
  4  6  2  0  0  0
  4 18  1  0  0  0
  5  6  1  0  0  0
  5  9  2  0  0  0
  6  7  1  0  0  0
  7  8  1  0  0  0
  8  9  1  0  0  0
  8 19  1  0  0  0
  9 10  1  0  0  0
 10 11  1  0  0  0
 10 20  1  0  0  0
 10 21  1  0  0  0
 11 12  1  0  0  0
 11 22  1  0  0  0
 11 23  1  0  0  0
 12 13  2  0  0  0
 12 14  2  0  0  0
M  END
$$$$
