DMS_2_A_403
  -ISIS-            3D

 10  9  0  0  0  0  0  0  0  0  1 V2000
   -2.4270  -18.8160   -8.0830 S   0  0  0  0  0
   -3.6750  -18.7760   -8.8970 O   0  0  0  0  0
   -1.2420  -17.8890   -8.9960 C   0  0  0  0  0
   -1.7590  -20.4020   -8.5120 C   0  0  0  0  0
   -0.2282  -18.0492   -8.5753 H   0  0  0  0  0
   -1.4878  -16.8098   -8.9229 H   0  0  0  0  0
   -1.2489  -18.1839  -10.0654 H   0  0  0  0  0
   -0.7295  -20.5001   -8.1108 H   0  0  0  0  0
   -1.7405  -20.5380   -9.6130 H   0  0  0  0  0
   -2.3895  -21.1973   -8.0640 H   0  0  0  0  0
  1  2  2  0  0  0
  1  3  1  0  0  0
  1  4  1  0  0  0
  3  5  1  0  0  0
  3  6  1  0  0  0
  3  7  1  0  0  0
  4  8  1  0  0  0
  4  9  1  0  0  0
  4 10  1  0  0  0
M  END
$$$$
